version 2
run General-0-20210611-17:09:32-64389
attr configname General
attr datetime 20210611-17:09:32
attr experiment General
attr inifile omnetpp.ini
attr iterationvars ""
attr iterationvarsf ""
attr measurement ""
attr network simulations.NetworkDaisyChain
attr processid 64389
attr repetition 0
attr replication #0
attr resultdir results
attr runnumber 0
attr seedset 0
param **.configurator.assignDisjunctSubnetAddresses false
param **.configurator.addStaticRoutes false
param **.configurator.addSubnetRoutes true
param **.configurator.addDefaultRoutes true
param **.configurator.optimizeRoutes false
param **.configurator.dumpAddresses true
param **.configurator.dumpRoutes true
param *.gPtpMaster.gptp.masterPorts "\"eth0\""
param *.gPtpSlave0.gptp.slavePort "\"eth0\""
param *.gPtpSlave1.gptp.slavePort "\"eth0\""
param *.gPtpSlave2.gptp.slavePort "\"eth0\""
param *.gPtpSlave3.gptp.slavePort "\"eth0\""
param *.gPtpSlave4.gptp.slavePort "\"eth0\""
param *.gPtpSlave5.gptp.slavePort "\"eth0\""
param *.gPtpSlave6.gptp.slavePort "\"eth0\""
param *.gPtpSlave7.gptp.slavePort "\"eth0\""
param *.gPtpBridge0.gptp.slavePort "\"eth0\""
param *.gPtpBridge0.gptp.masterPorts "\"eth1,eth2,eth3,eth4\""
param *.gPtpBridge1.gptp.slavePort "\"eth0\""
param *.gPtpBridge1.gptp.masterPorts "\"eth1,eth2,eth3,eth4\""
param *.gPtpBridge2.gptp.slavePort "\"eth0\""
param *.gPtpBridge2.gptp.masterPorts "\"eth1,eth2\""
param *.gPtpMaster.clock.clockDrift 0
param *.gPtpBridge0.clock.clockDrift 30
param *.gPtpSlave0.clock.clockDrift -50
param *.gPtpSlave1.clock.clockDrift 10
param *.gPtpSlave7.clock.clockDrift -35
param *.gPtpBridge1.clock.clockDrift -15
param *.gPtpSlave2.clock.clockDrift 50
param *.gPtpSlave5.clock.clockDrift 40
param *.gPtpSlave6.clock.clockDrift -15
param *.gPtpBridge2.clock.clockDrift 20
param *.gPtpSlave3.clock.clockDrift -5
param *.gPtpSlave4.clock.clockDrift -50

scalar NetworkDaisyChain.gPtpBridge0.relayUnit "number of received BPDUs from STP module" 0
scalar NetworkDaisyChain.gPtpBridge0.relayUnit "number of received frames from network (including BPDUs)" 0
scalar NetworkDaisyChain.gPtpBridge0.relayUnit "number of dropped frames (including BPDUs)" 0
scalar NetworkDaisyChain.gPtpBridge0.relayUnit "number of delivered BPDUs to the STP module" 0
scalar NetworkDaisyChain.gPtpBridge0.relayUnit "number of dispatched BPDU frames to the network" 0
scalar NetworkDaisyChain.gPtpBridge0.relayUnit "number of dispatched non-BDPU frames to the network" 0
scalar NetworkDaisyChain.gPtpBridge0.eth[0].mac.queue packetPopped:count 0
attr interpolationmode none
attr title "packet popped, count"
scalar NetworkDaisyChain.gPtpBridge0.eth[0].mac.queue packetPopped:sum(packetBytes) 0
attr interpolationmode none
attr title "packet popped, sum(packetBytes)"
statistic NetworkDaisyChain.gPtpBridge0.eth[0].mac.queue queueingTime:histogram
field count 0
field mean -nan
field stddev -nan
field min -nan
field max -nan
field sum 0
field sqrsum 0
attr interpolationmode none
attr source queueingTime(packetPopped)
attr title "queueing times, histogram"
attr unit s
bin	-inf	0
bin	0	0
bin	1	0
scalar NetworkDaisyChain.gPtpBridge0.eth[0].mac.queue queueLength:max -nan
attr interpolationmode sample-hold
attr source "count(packetPushed) - count(packetPopped) - count(packetRemoved) - count(packetDropped)"
attr title "queue length, max"
scalar NetworkDaisyChain.gPtpBridge0.eth[0].mac.queue queueLength:timeavg -nan
attr interpolationmode sample-hold
attr source "count(packetPushed) - count(packetPopped) - count(packetRemoved) - count(packetDropped)"
attr title "queue length, timeavg"
scalar NetworkDaisyChain.gPtpBridge0.eth[0].mac.queue packetPushed:count 0
attr interpolationmode none
attr title "packet pushed, count"
scalar NetworkDaisyChain.gPtpBridge0.eth[0].mac.queue packetPushed:sum(packetBytes) 0
attr interpolationmode none
attr title "packet pushed, sum(packetBytes)"
scalar NetworkDaisyChain.gPtpBridge0.eth[0].mac.queue packetDropQueueOverflow:count 0
attr interpolationmode none
attr source packetDropReasonIsQueueOverflow(packetDropped)
attr title "packet drops: queue overflow, count"
scalar NetworkDaisyChain.gPtpBridge0.eth[0].mac.queue packetDropQueueOverflow:sum(packetBytes) 0
attr interpolationmode none
attr source packetDropReasonIsQueueOverflow(packetDropped)
attr title "packet drops: queue overflow, sum(packetBytes)"
scalar NetworkDaisyChain.gPtpBridge0.eth[0].mac.queue packetRemoved:count 0
attr interpolationmode none
attr title "packets removed, count"
scalar NetworkDaisyChain.gPtpBridge0.eth[0].mac.queue packetRemoved:sum(packetBytes) 0
attr interpolationmode none
attr title "packets removed, sum(packetBytes)"
scalar NetworkDaisyChain.gPtpBridge0.eth[0].mac "simulated time" 0
scalar NetworkDaisyChain.gPtpBridge0.eth[0].mac full-duplex 1
scalar NetworkDaisyChain.gPtpBridge0.eth[0].mac "rx channel idle (%)" -nan
scalar NetworkDaisyChain.gPtpBridge0.eth[0].mac "rx channel utilization (%)" -nan
scalar NetworkDaisyChain.gPtpBridge0.eth[0].mac "rx channel collision (%)" -nan
scalar NetworkDaisyChain.gPtpBridge0.eth[0].mac collisions 0
scalar NetworkDaisyChain.gPtpBridge0.eth[0].mac backoffs 0
scalar NetworkDaisyChain.gPtpBridge0.eth[0].mac rxPausePkUnits:count 0
attr interpolationmode none
attr title "pause units received, count"
scalar NetworkDaisyChain.gPtpBridge0.eth[0].mac rxPausePkUnits:sum 0
attr interpolationmode none
attr title "pause units received, sum"
scalar NetworkDaisyChain.gPtpBridge0.eth[0].mac txPausePkUnits:count 0
attr interpolationmode none
attr title "pause units sent, count"
scalar NetworkDaisyChain.gPtpBridge0.eth[0].mac txPausePkUnits:sum 0
attr interpolationmode none
attr title "pause units sent, sum"
scalar NetworkDaisyChain.gPtpBridge0.eth[0].mac rxPkOk:count 0
attr interpolationmode none
attr source rxPkOk
attr title "packets received OK, count"
scalar NetworkDaisyChain.gPtpBridge0.eth[0].mac rxPkOk:sum(packetBytes) 0
attr interpolationmode none
attr source rxPkOk
attr title "packets received OK, sum(packetBytes)"
scalar NetworkDaisyChain.gPtpBridge0.eth[0].mac backoffSlotsGenerated:count 0
attr interpolationmode none
attr title "backoff, count"
scalar NetworkDaisyChain.gPtpBridge0.eth[0].mac collision:count 0
attr interpolationmode none
attr title "collision, count"
scalar NetworkDaisyChain.gPtpBridge0.eth[0].mac txPk:count 0
attr interpolationmode none
attr source packetSentToLower
attr title "packets transmitted, count"
scalar NetworkDaisyChain.gPtpBridge0.eth[0].mac txPk:sum(packetBytes) 0
attr interpolationmode none
attr source packetSentToLower
attr title "packets transmitted, sum(packetBytes)"
scalar NetworkDaisyChain.gPtpBridge0.eth[0].mac packetReceivedFromUpper:count 0
attr interpolationmode none
attr source packetReceivedFromUpper
attr title "packet bytes from higher layer, count"
scalar NetworkDaisyChain.gPtpBridge0.eth[0].mac packetReceivedFromUpper:sum(packetBytes) 0
attr interpolationmode none
attr source packetReceivedFromUpper
attr title "packet bytes from higher layer, sum(packetBytes)"
scalar NetworkDaisyChain.gPtpBridge0.eth[0].mac passedUpPk:count 0
attr interpolationmode none
attr source packetSentToUpper
attr title "packets passed to higher layer, count"
scalar NetworkDaisyChain.gPtpBridge0.eth[0].mac passedUpPk:sum(packetBytes) 0
attr interpolationmode none
attr source packetSentToUpper
attr title "packets passed to higher layer, sum(packetBytes)"
scalar NetworkDaisyChain.gPtpBridge0.eth[0].mac packetDropIncorrectlyReceived:count 0
attr interpolationmode none
attr source packetDropReasonIsIncorrectlyReceived(packetDropped)
attr title "packet drop: incorrectly received, count"
scalar NetworkDaisyChain.gPtpBridge0.eth[0].mac packetDropIncorrectlyReceived:sum(packetBytes) 0
attr interpolationmode none
attr source packetDropReasonIsIncorrectlyReceived(packetDropped)
attr title "packet drop: incorrectly received, sum(packetBytes)"
scalar NetworkDaisyChain.gPtpBridge0.eth[0].mac packetDropInterfaceDown:count 0
attr interpolationmode none
attr source packetDropReasonIsInterfaceDown(packetDropped)
attr title "packet drop: interface down, count"
scalar NetworkDaisyChain.gPtpBridge0.eth[0].mac packetDropInterfaceDown:sum(packetBytes) 0
attr interpolationmode none
attr source packetDropReasonIsInterfaceDown(packetDropped)
attr title "packet drop: interface down, sum(packetBytes)"
scalar NetworkDaisyChain.gPtpBridge0.eth[0].mac packetDropNotAddressedToUs:count 0
attr interpolationmode none
attr source packetDropReasonIsNotAddressedToUs(packetDropped)
attr title "packet drop: not addressed to us, count"
scalar NetworkDaisyChain.gPtpBridge0.eth[0].mac packetDropNotAddressedToUs:sum(packetBytes) 0
attr interpolationmode none
attr source packetDropReasonIsNotAddressedToUs(packetDropped)
attr title "packet drop: not addressed to us, sum(packetBytes)"
scalar NetworkDaisyChain.gPtpBridge0.eth[1].mac.queue packetPopped:count 0
attr interpolationmode none
attr title "packet popped, count"
scalar NetworkDaisyChain.gPtpBridge0.eth[1].mac.queue packetPopped:sum(packetBytes) 0
attr interpolationmode none
attr title "packet popped, sum(packetBytes)"
statistic NetworkDaisyChain.gPtpBridge0.eth[1].mac.queue queueingTime:histogram
field count 0
field mean -nan
field stddev -nan
field min -nan
field max -nan
field sum 0
field sqrsum 0
attr interpolationmode none
attr source queueingTime(packetPopped)
attr title "queueing times, histogram"
attr unit s
bin	-inf	0
bin	0	0
bin	1	0
scalar NetworkDaisyChain.gPtpBridge0.eth[1].mac.queue queueLength:max -nan
attr interpolationmode sample-hold
attr source "count(packetPushed) - count(packetPopped) - count(packetRemoved) - count(packetDropped)"
attr title "queue length, max"
scalar NetworkDaisyChain.gPtpBridge0.eth[1].mac.queue queueLength:timeavg -nan
attr interpolationmode sample-hold
attr source "count(packetPushed) - count(packetPopped) - count(packetRemoved) - count(packetDropped)"
attr title "queue length, timeavg"
scalar NetworkDaisyChain.gPtpBridge0.eth[1].mac.queue packetPushed:count 0
attr interpolationmode none
attr title "packet pushed, count"
scalar NetworkDaisyChain.gPtpBridge0.eth[1].mac.queue packetPushed:sum(packetBytes) 0
attr interpolationmode none
attr title "packet pushed, sum(packetBytes)"
scalar NetworkDaisyChain.gPtpBridge0.eth[1].mac.queue packetDropQueueOverflow:count 0
attr interpolationmode none
attr source packetDropReasonIsQueueOverflow(packetDropped)
attr title "packet drops: queue overflow, count"
scalar NetworkDaisyChain.gPtpBridge0.eth[1].mac.queue packetDropQueueOverflow:sum(packetBytes) 0
attr interpolationmode none
attr source packetDropReasonIsQueueOverflow(packetDropped)
attr title "packet drops: queue overflow, sum(packetBytes)"
scalar NetworkDaisyChain.gPtpBridge0.eth[1].mac.queue packetRemoved:count 0
attr interpolationmode none
attr title "packets removed, count"
scalar NetworkDaisyChain.gPtpBridge0.eth[1].mac.queue packetRemoved:sum(packetBytes) 0
attr interpolationmode none
attr title "packets removed, sum(packetBytes)"
scalar NetworkDaisyChain.gPtpBridge0.eth[1].mac "simulated time" 0
scalar NetworkDaisyChain.gPtpBridge0.eth[1].mac full-duplex 1
scalar NetworkDaisyChain.gPtpBridge0.eth[1].mac "rx channel idle (%)" -nan
scalar NetworkDaisyChain.gPtpBridge0.eth[1].mac "rx channel utilization (%)" -nan
scalar NetworkDaisyChain.gPtpBridge0.eth[1].mac "rx channel collision (%)" -nan
scalar NetworkDaisyChain.gPtpBridge0.eth[1].mac collisions 0
scalar NetworkDaisyChain.gPtpBridge0.eth[1].mac backoffs 0
scalar NetworkDaisyChain.gPtpBridge0.eth[1].mac rxPausePkUnits:count 0
attr interpolationmode none
attr title "pause units received, count"
scalar NetworkDaisyChain.gPtpBridge0.eth[1].mac rxPausePkUnits:sum 0
attr interpolationmode none
attr title "pause units received, sum"
scalar NetworkDaisyChain.gPtpBridge0.eth[1].mac txPausePkUnits:count 0
attr interpolationmode none
attr title "pause units sent, count"
scalar NetworkDaisyChain.gPtpBridge0.eth[1].mac txPausePkUnits:sum 0
attr interpolationmode none
attr title "pause units sent, sum"
scalar NetworkDaisyChain.gPtpBridge0.eth[1].mac rxPkOk:count 0
attr interpolationmode none
attr source rxPkOk
attr title "packets received OK, count"
scalar NetworkDaisyChain.gPtpBridge0.eth[1].mac rxPkOk:sum(packetBytes) 0
attr interpolationmode none
attr source rxPkOk
attr title "packets received OK, sum(packetBytes)"
scalar NetworkDaisyChain.gPtpBridge0.eth[1].mac backoffSlotsGenerated:count 0
attr interpolationmode none
attr title "backoff, count"
scalar NetworkDaisyChain.gPtpBridge0.eth[1].mac collision:count 0
attr interpolationmode none
attr title "collision, count"
scalar NetworkDaisyChain.gPtpBridge0.eth[1].mac txPk:count 0
attr interpolationmode none
attr source packetSentToLower
attr title "packets transmitted, count"
scalar NetworkDaisyChain.gPtpBridge0.eth[1].mac txPk:sum(packetBytes) 0
attr interpolationmode none
attr source packetSentToLower
attr title "packets transmitted, sum(packetBytes)"
scalar NetworkDaisyChain.gPtpBridge0.eth[1].mac packetReceivedFromUpper:count 0
attr interpolationmode none
attr source packetReceivedFromUpper
attr title "packet bytes from higher layer, count"
scalar NetworkDaisyChain.gPtpBridge0.eth[1].mac packetReceivedFromUpper:sum(packetBytes) 0
attr interpolationmode none
attr source packetReceivedFromUpper
attr title "packet bytes from higher layer, sum(packetBytes)"
scalar NetworkDaisyChain.gPtpBridge0.eth[1].mac passedUpPk:count 0
attr interpolationmode none
attr source packetSentToUpper
attr title "packets passed to higher layer, count"
scalar NetworkDaisyChain.gPtpBridge0.eth[1].mac passedUpPk:sum(packetBytes) 0
attr interpolationmode none
attr source packetSentToUpper
attr title "packets passed to higher layer, sum(packetBytes)"
scalar NetworkDaisyChain.gPtpBridge0.eth[1].mac packetDropIncorrectlyReceived:count 0
attr interpolationmode none
attr source packetDropReasonIsIncorrectlyReceived(packetDropped)
attr title "packet drop: incorrectly received, count"
scalar NetworkDaisyChain.gPtpBridge0.eth[1].mac packetDropIncorrectlyReceived:sum(packetBytes) 0
attr interpolationmode none
attr source packetDropReasonIsIncorrectlyReceived(packetDropped)
attr title "packet drop: incorrectly received, sum(packetBytes)"
scalar NetworkDaisyChain.gPtpBridge0.eth[1].mac packetDropInterfaceDown:count 0
attr interpolationmode none
attr source packetDropReasonIsInterfaceDown(packetDropped)
attr title "packet drop: interface down, count"
scalar NetworkDaisyChain.gPtpBridge0.eth[1].mac packetDropInterfaceDown:sum(packetBytes) 0
attr interpolationmode none
attr source packetDropReasonIsInterfaceDown(packetDropped)
attr title "packet drop: interface down, sum(packetBytes)"
scalar NetworkDaisyChain.gPtpBridge0.eth[1].mac packetDropNotAddressedToUs:count 0
attr interpolationmode none
attr source packetDropReasonIsNotAddressedToUs(packetDropped)
attr title "packet drop: not addressed to us, count"
scalar NetworkDaisyChain.gPtpBridge0.eth[1].mac packetDropNotAddressedToUs:sum(packetBytes) 0
attr interpolationmode none
attr source packetDropReasonIsNotAddressedToUs(packetDropped)
attr title "packet drop: not addressed to us, sum(packetBytes)"
scalar NetworkDaisyChain.gPtpBridge0.eth[2].mac.queue packetPopped:count 0
attr interpolationmode none
attr title "packet popped, count"
scalar NetworkDaisyChain.gPtpBridge0.eth[2].mac.queue packetPopped:sum(packetBytes) 0
attr interpolationmode none
attr title "packet popped, sum(packetBytes)"
statistic NetworkDaisyChain.gPtpBridge0.eth[2].mac.queue queueingTime:histogram
field count 0
field mean -nan
field stddev -nan
field min -nan
field max -nan
field sum 0
field sqrsum 0
attr interpolationmode none
attr source queueingTime(packetPopped)
attr title "queueing times, histogram"
attr unit s
bin	-inf	0
bin	0	0
bin	1	0
scalar NetworkDaisyChain.gPtpBridge0.eth[2].mac.queue queueLength:max -nan
attr interpolationmode sample-hold
attr source "count(packetPushed) - count(packetPopped) - count(packetRemoved) - count(packetDropped)"
attr title "queue length, max"
scalar NetworkDaisyChain.gPtpBridge0.eth[2].mac.queue queueLength:timeavg -nan
attr interpolationmode sample-hold
attr source "count(packetPushed) - count(packetPopped) - count(packetRemoved) - count(packetDropped)"
attr title "queue length, timeavg"
scalar NetworkDaisyChain.gPtpBridge0.eth[2].mac.queue packetPushed:count 0
attr interpolationmode none
attr title "packet pushed, count"
scalar NetworkDaisyChain.gPtpBridge0.eth[2].mac.queue packetPushed:sum(packetBytes) 0
attr interpolationmode none
attr title "packet pushed, sum(packetBytes)"
scalar NetworkDaisyChain.gPtpBridge0.eth[2].mac.queue packetDropQueueOverflow:count 0
attr interpolationmode none
attr source packetDropReasonIsQueueOverflow(packetDropped)
attr title "packet drops: queue overflow, count"
scalar NetworkDaisyChain.gPtpBridge0.eth[2].mac.queue packetDropQueueOverflow:sum(packetBytes) 0
attr interpolationmode none
attr source packetDropReasonIsQueueOverflow(packetDropped)
attr title "packet drops: queue overflow, sum(packetBytes)"
scalar NetworkDaisyChain.gPtpBridge0.eth[2].mac.queue packetRemoved:count 0
attr interpolationmode none
attr title "packets removed, count"
scalar NetworkDaisyChain.gPtpBridge0.eth[2].mac.queue packetRemoved:sum(packetBytes) 0
attr interpolationmode none
attr title "packets removed, sum(packetBytes)"
scalar NetworkDaisyChain.gPtpBridge0.eth[2].mac "simulated time" 0
scalar NetworkDaisyChain.gPtpBridge0.eth[2].mac full-duplex 1
scalar NetworkDaisyChain.gPtpBridge0.eth[2].mac "rx channel idle (%)" -nan
scalar NetworkDaisyChain.gPtpBridge0.eth[2].mac "rx channel utilization (%)" -nan
scalar NetworkDaisyChain.gPtpBridge0.eth[2].mac "rx channel collision (%)" -nan
scalar NetworkDaisyChain.gPtpBridge0.eth[2].mac collisions 0
scalar NetworkDaisyChain.gPtpBridge0.eth[2].mac backoffs 0
scalar NetworkDaisyChain.gPtpBridge0.eth[2].mac rxPausePkUnits:count 0
attr interpolationmode none
attr title "pause units received, count"
scalar NetworkDaisyChain.gPtpBridge0.eth[2].mac rxPausePkUnits:sum 0
attr interpolationmode none
attr title "pause units received, sum"
scalar NetworkDaisyChain.gPtpBridge0.eth[2].mac txPausePkUnits:count 0
attr interpolationmode none
attr title "pause units sent, count"
scalar NetworkDaisyChain.gPtpBridge0.eth[2].mac txPausePkUnits:sum 0
attr interpolationmode none
attr title "pause units sent, sum"
scalar NetworkDaisyChain.gPtpBridge0.eth[2].mac rxPkOk:count 0
attr interpolationmode none
attr source rxPkOk
attr title "packets received OK, count"
scalar NetworkDaisyChain.gPtpBridge0.eth[2].mac rxPkOk:sum(packetBytes) 0
attr interpolationmode none
attr source rxPkOk
attr title "packets received OK, sum(packetBytes)"
scalar NetworkDaisyChain.gPtpBridge0.eth[2].mac backoffSlotsGenerated:count 0
attr interpolationmode none
attr title "backoff, count"
scalar NetworkDaisyChain.gPtpBridge0.eth[2].mac collision:count 0
attr interpolationmode none
attr title "collision, count"
scalar NetworkDaisyChain.gPtpBridge0.eth[2].mac txPk:count 0
attr interpolationmode none
attr source packetSentToLower
attr title "packets transmitted, count"
scalar NetworkDaisyChain.gPtpBridge0.eth[2].mac txPk:sum(packetBytes) 0
attr interpolationmode none
attr source packetSentToLower
attr title "packets transmitted, sum(packetBytes)"
scalar NetworkDaisyChain.gPtpBridge0.eth[2].mac packetReceivedFromUpper:count 0
attr interpolationmode none
attr source packetReceivedFromUpper
attr title "packet bytes from higher layer, count"
scalar NetworkDaisyChain.gPtpBridge0.eth[2].mac packetReceivedFromUpper:sum(packetBytes) 0
attr interpolationmode none
attr source packetReceivedFromUpper
attr title "packet bytes from higher layer, sum(packetBytes)"
scalar NetworkDaisyChain.gPtpBridge0.eth[2].mac passedUpPk:count 0
attr interpolationmode none
attr source packetSentToUpper
attr title "packets passed to higher layer, count"
scalar NetworkDaisyChain.gPtpBridge0.eth[2].mac passedUpPk:sum(packetBytes) 0
attr interpolationmode none
attr source packetSentToUpper
attr title "packets passed to higher layer, sum(packetBytes)"
scalar NetworkDaisyChain.gPtpBridge0.eth[2].mac packetDropIncorrectlyReceived:count 0
attr interpolationmode none
attr source packetDropReasonIsIncorrectlyReceived(packetDropped)
attr title "packet drop: incorrectly received, count"
scalar NetworkDaisyChain.gPtpBridge0.eth[2].mac packetDropIncorrectlyReceived:sum(packetBytes) 0
attr interpolationmode none
attr source packetDropReasonIsIncorrectlyReceived(packetDropped)
attr title "packet drop: incorrectly received, sum(packetBytes)"
scalar NetworkDaisyChain.gPtpBridge0.eth[2].mac packetDropInterfaceDown:count 0
attr interpolationmode none
attr source packetDropReasonIsInterfaceDown(packetDropped)
attr title "packet drop: interface down, count"
scalar NetworkDaisyChain.gPtpBridge0.eth[2].mac packetDropInterfaceDown:sum(packetBytes) 0
attr interpolationmode none
attr source packetDropReasonIsInterfaceDown(packetDropped)
attr title "packet drop: interface down, sum(packetBytes)"
scalar NetworkDaisyChain.gPtpBridge0.eth[2].mac packetDropNotAddressedToUs:count 0
attr interpolationmode none
attr source packetDropReasonIsNotAddressedToUs(packetDropped)
attr title "packet drop: not addressed to us, count"
scalar NetworkDaisyChain.gPtpBridge0.eth[2].mac packetDropNotAddressedToUs:sum(packetBytes) 0
attr interpolationmode none
attr source packetDropReasonIsNotAddressedToUs(packetDropped)
attr title "packet drop: not addressed to us, sum(packetBytes)"
scalar NetworkDaisyChain.gPtpBridge0.eth[3].mac.queue packetPopped:count 0
attr interpolationmode none
attr title "packet popped, count"
scalar NetworkDaisyChain.gPtpBridge0.eth[3].mac.queue packetPopped:sum(packetBytes) 0
attr interpolationmode none
attr title "packet popped, sum(packetBytes)"
statistic NetworkDaisyChain.gPtpBridge0.eth[3].mac.queue queueingTime:histogram
field count 0
field mean -nan
field stddev -nan
field min -nan
field max -nan
field sum 0
field sqrsum 0
attr interpolationmode none
attr source queueingTime(packetPopped)
attr title "queueing times, histogram"
attr unit s
bin	-inf	0
bin	0	0
bin	1	0
scalar NetworkDaisyChain.gPtpBridge0.eth[3].mac.queue queueLength:max -nan
attr interpolationmode sample-hold
attr source "count(packetPushed) - count(packetPopped) - count(packetRemoved) - count(packetDropped)"
attr title "queue length, max"
scalar NetworkDaisyChain.gPtpBridge0.eth[3].mac.queue queueLength:timeavg -nan
attr interpolationmode sample-hold
attr source "count(packetPushed) - count(packetPopped) - count(packetRemoved) - count(packetDropped)"
attr title "queue length, timeavg"
scalar NetworkDaisyChain.gPtpBridge0.eth[3].mac.queue packetPushed:count 0
attr interpolationmode none
attr title "packet pushed, count"
scalar NetworkDaisyChain.gPtpBridge0.eth[3].mac.queue packetPushed:sum(packetBytes) 0
attr interpolationmode none
attr title "packet pushed, sum(packetBytes)"
scalar NetworkDaisyChain.gPtpBridge0.eth[3].mac.queue packetDropQueueOverflow:count 0
attr interpolationmode none
attr source packetDropReasonIsQueueOverflow(packetDropped)
attr title "packet drops: queue overflow, count"
scalar NetworkDaisyChain.gPtpBridge0.eth[3].mac.queue packetDropQueueOverflow:sum(packetBytes) 0
attr interpolationmode none
attr source packetDropReasonIsQueueOverflow(packetDropped)
attr title "packet drops: queue overflow, sum(packetBytes)"
scalar NetworkDaisyChain.gPtpBridge0.eth[3].mac.queue packetRemoved:count 0
attr interpolationmode none
attr title "packets removed, count"
scalar NetworkDaisyChain.gPtpBridge0.eth[3].mac.queue packetRemoved:sum(packetBytes) 0
attr interpolationmode none
attr title "packets removed, sum(packetBytes)"
scalar NetworkDaisyChain.gPtpBridge0.eth[3].mac "simulated time" 0
scalar NetworkDaisyChain.gPtpBridge0.eth[3].mac full-duplex 1
scalar NetworkDaisyChain.gPtpBridge0.eth[3].mac "rx channel idle (%)" -nan
scalar NetworkDaisyChain.gPtpBridge0.eth[3].mac "rx channel utilization (%)" -nan
scalar NetworkDaisyChain.gPtpBridge0.eth[3].mac "rx channel collision (%)" -nan
scalar NetworkDaisyChain.gPtpBridge0.eth[3].mac collisions 0
scalar NetworkDaisyChain.gPtpBridge0.eth[3].mac backoffs 0
scalar NetworkDaisyChain.gPtpBridge0.eth[3].mac rxPausePkUnits:count 0
attr interpolationmode none
attr title "pause units received, count"
scalar NetworkDaisyChain.gPtpBridge0.eth[3].mac rxPausePkUnits:sum 0
attr interpolationmode none
attr title "pause units received, sum"
scalar NetworkDaisyChain.gPtpBridge0.eth[3].mac txPausePkUnits:count 0
attr interpolationmode none
attr title "pause units sent, count"
scalar NetworkDaisyChain.gPtpBridge0.eth[3].mac txPausePkUnits:sum 0
attr interpolationmode none
attr title "pause units sent, sum"
scalar NetworkDaisyChain.gPtpBridge0.eth[3].mac rxPkOk:count 0
attr interpolationmode none
attr source rxPkOk
attr title "packets received OK, count"
scalar NetworkDaisyChain.gPtpBridge0.eth[3].mac rxPkOk:sum(packetBytes) 0
attr interpolationmode none
attr source rxPkOk
attr title "packets received OK, sum(packetBytes)"
scalar NetworkDaisyChain.gPtpBridge0.eth[3].mac backoffSlotsGenerated:count 0
attr interpolationmode none
attr title "backoff, count"
scalar NetworkDaisyChain.gPtpBridge0.eth[3].mac collision:count 0
attr interpolationmode none
attr title "collision, count"
scalar NetworkDaisyChain.gPtpBridge0.eth[3].mac txPk:count 0
attr interpolationmode none
attr source packetSentToLower
attr title "packets transmitted, count"
scalar NetworkDaisyChain.gPtpBridge0.eth[3].mac txPk:sum(packetBytes) 0
attr interpolationmode none
attr source packetSentToLower
attr title "packets transmitted, sum(packetBytes)"
scalar NetworkDaisyChain.gPtpBridge0.eth[3].mac packetReceivedFromUpper:count 0
attr interpolationmode none
attr source packetReceivedFromUpper
attr title "packet bytes from higher layer, count"
scalar NetworkDaisyChain.gPtpBridge0.eth[3].mac packetReceivedFromUpper:sum(packetBytes) 0
attr interpolationmode none
attr source packetReceivedFromUpper
attr title "packet bytes from higher layer, sum(packetBytes)"
scalar NetworkDaisyChain.gPtpBridge0.eth[3].mac passedUpPk:count 0
attr interpolationmode none
attr source packetSentToUpper
attr title "packets passed to higher layer, count"
scalar NetworkDaisyChain.gPtpBridge0.eth[3].mac passedUpPk:sum(packetBytes) 0
attr interpolationmode none
attr source packetSentToUpper
attr title "packets passed to higher layer, sum(packetBytes)"
scalar NetworkDaisyChain.gPtpBridge0.eth[3].mac packetDropIncorrectlyReceived:count 0
attr interpolationmode none
attr source packetDropReasonIsIncorrectlyReceived(packetDropped)
attr title "packet drop: incorrectly received, count"
scalar NetworkDaisyChain.gPtpBridge0.eth[3].mac packetDropIncorrectlyReceived:sum(packetBytes) 0
attr interpolationmode none
attr source packetDropReasonIsIncorrectlyReceived(packetDropped)
attr title "packet drop: incorrectly received, sum(packetBytes)"
scalar NetworkDaisyChain.gPtpBridge0.eth[3].mac packetDropInterfaceDown:count 0
attr interpolationmode none
attr source packetDropReasonIsInterfaceDown(packetDropped)
attr title "packet drop: interface down, count"
scalar NetworkDaisyChain.gPtpBridge0.eth[3].mac packetDropInterfaceDown:sum(packetBytes) 0
attr interpolationmode none
attr source packetDropReasonIsInterfaceDown(packetDropped)
attr title "packet drop: interface down, sum(packetBytes)"
scalar NetworkDaisyChain.gPtpBridge0.eth[3].mac packetDropNotAddressedToUs:count 0
attr interpolationmode none
attr source packetDropReasonIsNotAddressedToUs(packetDropped)
attr title "packet drop: not addressed to us, count"
scalar NetworkDaisyChain.gPtpBridge0.eth[3].mac packetDropNotAddressedToUs:sum(packetBytes) 0
attr interpolationmode none
attr source packetDropReasonIsNotAddressedToUs(packetDropped)
attr title "packet drop: not addressed to us, sum(packetBytes)"
scalar NetworkDaisyChain.gPtpBridge0.eth[4].mac.queue packetPopped:count 0
attr interpolationmode none
attr title "packet popped, count"
scalar NetworkDaisyChain.gPtpBridge0.eth[4].mac.queue packetPopped:sum(packetBytes) 0
attr interpolationmode none
attr title "packet popped, sum(packetBytes)"
statistic NetworkDaisyChain.gPtpBridge0.eth[4].mac.queue queueingTime:histogram
field count 0
field mean -nan
field stddev -nan
field min -nan
field max -nan
field sum 0
field sqrsum 0
attr interpolationmode none
attr source queueingTime(packetPopped)
attr title "queueing times, histogram"
attr unit s
bin	-inf	0
bin	0	0
bin	1	0
scalar NetworkDaisyChain.gPtpBridge0.eth[4].mac.queue queueLength:max -nan
attr interpolationmode sample-hold
attr source "count(packetPushed) - count(packetPopped) - count(packetRemoved) - count(packetDropped)"
attr title "queue length, max"
scalar NetworkDaisyChain.gPtpBridge0.eth[4].mac.queue queueLength:timeavg -nan
attr interpolationmode sample-hold
attr source "count(packetPushed) - count(packetPopped) - count(packetRemoved) - count(packetDropped)"
attr title "queue length, timeavg"
scalar NetworkDaisyChain.gPtpBridge0.eth[4].mac.queue packetPushed:count 0
attr interpolationmode none
attr title "packet pushed, count"
scalar NetworkDaisyChain.gPtpBridge0.eth[4].mac.queue packetPushed:sum(packetBytes) 0
attr interpolationmode none
attr title "packet pushed, sum(packetBytes)"
scalar NetworkDaisyChain.gPtpBridge0.eth[4].mac.queue packetDropQueueOverflow:count 0
attr interpolationmode none
attr source packetDropReasonIsQueueOverflow(packetDropped)
attr title "packet drops: queue overflow, count"
scalar NetworkDaisyChain.gPtpBridge0.eth[4].mac.queue packetDropQueueOverflow:sum(packetBytes) 0
attr interpolationmode none
attr source packetDropReasonIsQueueOverflow(packetDropped)
attr title "packet drops: queue overflow, sum(packetBytes)"
scalar NetworkDaisyChain.gPtpBridge0.eth[4].mac.queue packetRemoved:count 0
attr interpolationmode none
attr title "packets removed, count"
scalar NetworkDaisyChain.gPtpBridge0.eth[4].mac.queue packetRemoved:sum(packetBytes) 0
attr interpolationmode none
attr title "packets removed, sum(packetBytes)"
scalar NetworkDaisyChain.gPtpBridge0.eth[4].mac "simulated time" 0
scalar NetworkDaisyChain.gPtpBridge0.eth[4].mac full-duplex 1
scalar NetworkDaisyChain.gPtpBridge0.eth[4].mac "rx channel idle (%)" -nan
scalar NetworkDaisyChain.gPtpBridge0.eth[4].mac "rx channel utilization (%)" -nan
scalar NetworkDaisyChain.gPtpBridge0.eth[4].mac "rx channel collision (%)" -nan
scalar NetworkDaisyChain.gPtpBridge0.eth[4].mac collisions 0
scalar NetworkDaisyChain.gPtpBridge0.eth[4].mac backoffs 0
scalar NetworkDaisyChain.gPtpBridge0.eth[4].mac rxPausePkUnits:count 0
attr interpolationmode none
attr title "pause units received, count"
scalar NetworkDaisyChain.gPtpBridge0.eth[4].mac rxPausePkUnits:sum 0
attr interpolationmode none
attr title "pause units received, sum"
scalar NetworkDaisyChain.gPtpBridge0.eth[4].mac txPausePkUnits:count 0
attr interpolationmode none
attr title "pause units sent, count"
scalar NetworkDaisyChain.gPtpBridge0.eth[4].mac txPausePkUnits:sum 0
attr interpolationmode none
attr title "pause units sent, sum"
scalar NetworkDaisyChain.gPtpBridge0.eth[4].mac rxPkOk:count 0
attr interpolationmode none
attr source rxPkOk
attr title "packets received OK, count"
scalar NetworkDaisyChain.gPtpBridge0.eth[4].mac rxPkOk:sum(packetBytes) 0
attr interpolationmode none
attr source rxPkOk
attr title "packets received OK, sum(packetBytes)"
scalar NetworkDaisyChain.gPtpBridge0.eth[4].mac backoffSlotsGenerated:count 0
attr interpolationmode none
attr title "backoff, count"
scalar NetworkDaisyChain.gPtpBridge0.eth[4].mac collision:count 0
attr interpolationmode none
attr title "collision, count"
scalar NetworkDaisyChain.gPtpBridge0.eth[4].mac txPk:count 0
attr interpolationmode none
attr source packetSentToLower
attr title "packets transmitted, count"
scalar NetworkDaisyChain.gPtpBridge0.eth[4].mac txPk:sum(packetBytes) 0
attr interpolationmode none
attr source packetSentToLower
attr title "packets transmitted, sum(packetBytes)"
scalar NetworkDaisyChain.gPtpBridge0.eth[4].mac packetReceivedFromUpper:count 0
attr interpolationmode none
attr source packetReceivedFromUpper
attr title "packet bytes from higher layer, count"
scalar NetworkDaisyChain.gPtpBridge0.eth[4].mac packetReceivedFromUpper:sum(packetBytes) 0
attr interpolationmode none
attr source packetReceivedFromUpper
attr title "packet bytes from higher layer, sum(packetBytes)"
scalar NetworkDaisyChain.gPtpBridge0.eth[4].mac passedUpPk:count 0
attr interpolationmode none
attr source packetSentToUpper
attr title "packets passed to higher layer, count"
scalar NetworkDaisyChain.gPtpBridge0.eth[4].mac passedUpPk:sum(packetBytes) 0
attr interpolationmode none
attr source packetSentToUpper
attr title "packets passed to higher layer, sum(packetBytes)"
scalar NetworkDaisyChain.gPtpBridge0.eth[4].mac packetDropIncorrectlyReceived:count 0
attr interpolationmode none
attr source packetDropReasonIsIncorrectlyReceived(packetDropped)
attr title "packet drop: incorrectly received, count"
scalar NetworkDaisyChain.gPtpBridge0.eth[4].mac packetDropIncorrectlyReceived:sum(packetBytes) 0
attr interpolationmode none
attr source packetDropReasonIsIncorrectlyReceived(packetDropped)
attr title "packet drop: incorrectly received, sum(packetBytes)"
scalar NetworkDaisyChain.gPtpBridge0.eth[4].mac packetDropInterfaceDown:count 0
attr interpolationmode none
attr source packetDropReasonIsInterfaceDown(packetDropped)
attr title "packet drop: interface down, count"
scalar NetworkDaisyChain.gPtpBridge0.eth[4].mac packetDropInterfaceDown:sum(packetBytes) 0
attr interpolationmode none
attr source packetDropReasonIsInterfaceDown(packetDropped)
attr title "packet drop: interface down, sum(packetBytes)"
scalar NetworkDaisyChain.gPtpBridge0.eth[4].mac packetDropNotAddressedToUs:count 0
attr interpolationmode none
attr source packetDropReasonIsNotAddressedToUs(packetDropped)
attr title "packet drop: not addressed to us, count"
scalar NetworkDaisyChain.gPtpBridge0.eth[4].mac packetDropNotAddressedToUs:sum(packetBytes) 0
attr interpolationmode none
attr source packetDropReasonIsNotAddressedToUs(packetDropped)
attr title "packet drop: not addressed to us, sum(packetBytes)"
scalar NetworkDaisyChain.gPtpBridge0.encap pauseSent:count 0
attr title "pause sent, count"
scalar NetworkDaisyChain.gPtpBridge0.encap pauseSent:sum 0
attr title "pause sent, sum"
scalar NetworkDaisyChain.gPtpBridge0.encap decapPk:count 0
attr interpolationmode none
attr source decapPk
attr title "packets decapsulated, count"
scalar NetworkDaisyChain.gPtpBridge0.encap decapPk:sum(packetBytes) 0
attr interpolationmode none
attr source decapPk
attr title "packets decapsulated, sum(packetBytes)"
scalar NetworkDaisyChain.gPtpBridge0.encap encapPk:count 0
attr interpolationmode none
attr source encapPk
attr title "packets encapsulated, count"
scalar NetworkDaisyChain.gPtpBridge0.encap encapPk:sum(packetBytes) 0
attr interpolationmode none
attr source encapPk
attr title "packets encapsulated, sum(packetBytes)"
scalar NetworkDaisyChain.gPtpBridge1.relayUnit "number of received BPDUs from STP module" 0
scalar NetworkDaisyChain.gPtpBridge1.relayUnit "number of received frames from network (including BPDUs)" 0
scalar NetworkDaisyChain.gPtpBridge1.relayUnit "number of dropped frames (including BPDUs)" 0
scalar NetworkDaisyChain.gPtpBridge1.relayUnit "number of delivered BPDUs to the STP module" 0
scalar NetworkDaisyChain.gPtpBridge1.relayUnit "number of dispatched BPDU frames to the network" 0
scalar NetworkDaisyChain.gPtpBridge1.relayUnit "number of dispatched non-BDPU frames to the network" 0
scalar NetworkDaisyChain.gPtpBridge1.eth[0].mac.queue packetPopped:count 0
attr interpolationmode none
attr title "packet popped, count"
scalar NetworkDaisyChain.gPtpBridge1.eth[0].mac.queue packetPopped:sum(packetBytes) 0
attr interpolationmode none
attr title "packet popped, sum(packetBytes)"
statistic NetworkDaisyChain.gPtpBridge1.eth[0].mac.queue queueingTime:histogram
field count 0
field mean -nan
field stddev -nan
field min -nan
field max -nan
field sum 0
field sqrsum 0
attr interpolationmode none
attr source queueingTime(packetPopped)
attr title "queueing times, histogram"
attr unit s
bin	-inf	0
bin	0	0
bin	1	0
scalar NetworkDaisyChain.gPtpBridge1.eth[0].mac.queue queueLength:max -nan
attr interpolationmode sample-hold
attr source "count(packetPushed) - count(packetPopped) - count(packetRemoved) - count(packetDropped)"
attr title "queue length, max"
scalar NetworkDaisyChain.gPtpBridge1.eth[0].mac.queue queueLength:timeavg -nan
attr interpolationmode sample-hold
attr source "count(packetPushed) - count(packetPopped) - count(packetRemoved) - count(packetDropped)"
attr title "queue length, timeavg"
scalar NetworkDaisyChain.gPtpBridge1.eth[0].mac.queue packetPushed:count 0
attr interpolationmode none
attr title "packet pushed, count"
scalar NetworkDaisyChain.gPtpBridge1.eth[0].mac.queue packetPushed:sum(packetBytes) 0
attr interpolationmode none
attr title "packet pushed, sum(packetBytes)"
scalar NetworkDaisyChain.gPtpBridge1.eth[0].mac.queue packetDropQueueOverflow:count 0
attr interpolationmode none
attr source packetDropReasonIsQueueOverflow(packetDropped)
attr title "packet drops: queue overflow, count"
scalar NetworkDaisyChain.gPtpBridge1.eth[0].mac.queue packetDropQueueOverflow:sum(packetBytes) 0
attr interpolationmode none
attr source packetDropReasonIsQueueOverflow(packetDropped)
attr title "packet drops: queue overflow, sum(packetBytes)"
scalar NetworkDaisyChain.gPtpBridge1.eth[0].mac.queue packetRemoved:count 0
attr interpolationmode none
attr title "packets removed, count"
scalar NetworkDaisyChain.gPtpBridge1.eth[0].mac.queue packetRemoved:sum(packetBytes) 0
attr interpolationmode none
attr title "packets removed, sum(packetBytes)"
scalar NetworkDaisyChain.gPtpBridge1.eth[0].mac "simulated time" 0
scalar NetworkDaisyChain.gPtpBridge1.eth[0].mac full-duplex 1
scalar NetworkDaisyChain.gPtpBridge1.eth[0].mac "rx channel idle (%)" -nan
scalar NetworkDaisyChain.gPtpBridge1.eth[0].mac "rx channel utilization (%)" -nan
scalar NetworkDaisyChain.gPtpBridge1.eth[0].mac "rx channel collision (%)" -nan
scalar NetworkDaisyChain.gPtpBridge1.eth[0].mac collisions 0
scalar NetworkDaisyChain.gPtpBridge1.eth[0].mac backoffs 0
scalar NetworkDaisyChain.gPtpBridge1.eth[0].mac rxPausePkUnits:count 0
attr interpolationmode none
attr title "pause units received, count"
scalar NetworkDaisyChain.gPtpBridge1.eth[0].mac rxPausePkUnits:sum 0
attr interpolationmode none
attr title "pause units received, sum"
scalar NetworkDaisyChain.gPtpBridge1.eth[0].mac txPausePkUnits:count 0
attr interpolationmode none
attr title "pause units sent, count"
scalar NetworkDaisyChain.gPtpBridge1.eth[0].mac txPausePkUnits:sum 0
attr interpolationmode none
attr title "pause units sent, sum"
scalar NetworkDaisyChain.gPtpBridge1.eth[0].mac rxPkOk:count 0
attr interpolationmode none
attr source rxPkOk
attr title "packets received OK, count"
scalar NetworkDaisyChain.gPtpBridge1.eth[0].mac rxPkOk:sum(packetBytes) 0
attr interpolationmode none
attr source rxPkOk
attr title "packets received OK, sum(packetBytes)"
scalar NetworkDaisyChain.gPtpBridge1.eth[0].mac backoffSlotsGenerated:count 0
attr interpolationmode none
attr title "backoff, count"
scalar NetworkDaisyChain.gPtpBridge1.eth[0].mac collision:count 0
attr interpolationmode none
attr title "collision, count"
scalar NetworkDaisyChain.gPtpBridge1.eth[0].mac txPk:count 0
attr interpolationmode none
attr source packetSentToLower
attr title "packets transmitted, count"
scalar NetworkDaisyChain.gPtpBridge1.eth[0].mac txPk:sum(packetBytes) 0
attr interpolationmode none
attr source packetSentToLower
attr title "packets transmitted, sum(packetBytes)"
scalar NetworkDaisyChain.gPtpBridge1.eth[0].mac packetReceivedFromUpper:count 0
attr interpolationmode none
attr source packetReceivedFromUpper
attr title "packet bytes from higher layer, count"
scalar NetworkDaisyChain.gPtpBridge1.eth[0].mac packetReceivedFromUpper:sum(packetBytes) 0
attr interpolationmode none
attr source packetReceivedFromUpper
attr title "packet bytes from higher layer, sum(packetBytes)"
scalar NetworkDaisyChain.gPtpBridge1.eth[0].mac passedUpPk:count 0
attr interpolationmode none
attr source packetSentToUpper
attr title "packets passed to higher layer, count"
scalar NetworkDaisyChain.gPtpBridge1.eth[0].mac passedUpPk:sum(packetBytes) 0
attr interpolationmode none
attr source packetSentToUpper
attr title "packets passed to higher layer, sum(packetBytes)"
scalar NetworkDaisyChain.gPtpBridge1.eth[0].mac packetDropIncorrectlyReceived:count 0
attr interpolationmode none
attr source packetDropReasonIsIncorrectlyReceived(packetDropped)
attr title "packet drop: incorrectly received, count"
scalar NetworkDaisyChain.gPtpBridge1.eth[0].mac packetDropIncorrectlyReceived:sum(packetBytes) 0
attr interpolationmode none
attr source packetDropReasonIsIncorrectlyReceived(packetDropped)
attr title "packet drop: incorrectly received, sum(packetBytes)"
scalar NetworkDaisyChain.gPtpBridge1.eth[0].mac packetDropInterfaceDown:count 0
attr interpolationmode none
attr source packetDropReasonIsInterfaceDown(packetDropped)
attr title "packet drop: interface down, count"
scalar NetworkDaisyChain.gPtpBridge1.eth[0].mac packetDropInterfaceDown:sum(packetBytes) 0
attr interpolationmode none
attr source packetDropReasonIsInterfaceDown(packetDropped)
attr title "packet drop: interface down, sum(packetBytes)"
scalar NetworkDaisyChain.gPtpBridge1.eth[0].mac packetDropNotAddressedToUs:count 0
attr interpolationmode none
attr source packetDropReasonIsNotAddressedToUs(packetDropped)
attr title "packet drop: not addressed to us, count"
scalar NetworkDaisyChain.gPtpBridge1.eth[0].mac packetDropNotAddressedToUs:sum(packetBytes) 0
attr interpolationmode none
attr source packetDropReasonIsNotAddressedToUs(packetDropped)
attr title "packet drop: not addressed to us, sum(packetBytes)"
scalar NetworkDaisyChain.gPtpBridge1.eth[1].mac.queue packetPopped:count 0
attr interpolationmode none
attr title "packet popped, count"
scalar NetworkDaisyChain.gPtpBridge1.eth[1].mac.queue packetPopped:sum(packetBytes) 0
attr interpolationmode none
attr title "packet popped, sum(packetBytes)"
statistic NetworkDaisyChain.gPtpBridge1.eth[1].mac.queue queueingTime:histogram
field count 0
field mean -nan
field stddev -nan
field min -nan
field max -nan
field sum 0
field sqrsum 0
attr interpolationmode none
attr source queueingTime(packetPopped)
attr title "queueing times, histogram"
attr unit s
bin	-inf	0
bin	0	0
bin	1	0
scalar NetworkDaisyChain.gPtpBridge1.eth[1].mac.queue queueLength:max -nan
attr interpolationmode sample-hold
attr source "count(packetPushed) - count(packetPopped) - count(packetRemoved) - count(packetDropped)"
attr title "queue length, max"
scalar NetworkDaisyChain.gPtpBridge1.eth[1].mac.queue queueLength:timeavg -nan
attr interpolationmode sample-hold
attr source "count(packetPushed) - count(packetPopped) - count(packetRemoved) - count(packetDropped)"
attr title "queue length, timeavg"
scalar NetworkDaisyChain.gPtpBridge1.eth[1].mac.queue packetPushed:count 0
attr interpolationmode none
attr title "packet pushed, count"
scalar NetworkDaisyChain.gPtpBridge1.eth[1].mac.queue packetPushed:sum(packetBytes) 0
attr interpolationmode none
attr title "packet pushed, sum(packetBytes)"
scalar NetworkDaisyChain.gPtpBridge1.eth[1].mac.queue packetDropQueueOverflow:count 0
attr interpolationmode none
attr source packetDropReasonIsQueueOverflow(packetDropped)
attr title "packet drops: queue overflow, count"
scalar NetworkDaisyChain.gPtpBridge1.eth[1].mac.queue packetDropQueueOverflow:sum(packetBytes) 0
attr interpolationmode none
attr source packetDropReasonIsQueueOverflow(packetDropped)
attr title "packet drops: queue overflow, sum(packetBytes)"
scalar NetworkDaisyChain.gPtpBridge1.eth[1].mac.queue packetRemoved:count 0
attr interpolationmode none
attr title "packets removed, count"
scalar NetworkDaisyChain.gPtpBridge1.eth[1].mac.queue packetRemoved:sum(packetBytes) 0
attr interpolationmode none
attr title "packets removed, sum(packetBytes)"
scalar NetworkDaisyChain.gPtpBridge1.eth[1].mac "simulated time" 0
scalar NetworkDaisyChain.gPtpBridge1.eth[1].mac full-duplex 1
scalar NetworkDaisyChain.gPtpBridge1.eth[1].mac "rx channel idle (%)" -nan
scalar NetworkDaisyChain.gPtpBridge1.eth[1].mac "rx channel utilization (%)" -nan
scalar NetworkDaisyChain.gPtpBridge1.eth[1].mac "rx channel collision (%)" -nan
scalar NetworkDaisyChain.gPtpBridge1.eth[1].mac collisions 0
scalar NetworkDaisyChain.gPtpBridge1.eth[1].mac backoffs 0
scalar NetworkDaisyChain.gPtpBridge1.eth[1].mac rxPausePkUnits:count 0
attr interpolationmode none
attr title "pause units received, count"
scalar NetworkDaisyChain.gPtpBridge1.eth[1].mac rxPausePkUnits:sum 0
attr interpolationmode none
attr title "pause units received, sum"
scalar NetworkDaisyChain.gPtpBridge1.eth[1].mac txPausePkUnits:count 0
attr interpolationmode none
attr title "pause units sent, count"
scalar NetworkDaisyChain.gPtpBridge1.eth[1].mac txPausePkUnits:sum 0
attr interpolationmode none
attr title "pause units sent, sum"
scalar NetworkDaisyChain.gPtpBridge1.eth[1].mac rxPkOk:count 0
attr interpolationmode none
attr source rxPkOk
attr title "packets received OK, count"
scalar NetworkDaisyChain.gPtpBridge1.eth[1].mac rxPkOk:sum(packetBytes) 0
attr interpolationmode none
attr source rxPkOk
attr title "packets received OK, sum(packetBytes)"
scalar NetworkDaisyChain.gPtpBridge1.eth[1].mac backoffSlotsGenerated:count 0
attr interpolationmode none
attr title "backoff, count"
scalar NetworkDaisyChain.gPtpBridge1.eth[1].mac collision:count 0
attr interpolationmode none
attr title "collision, count"
scalar NetworkDaisyChain.gPtpBridge1.eth[1].mac txPk:count 0
attr interpolationmode none
attr source packetSentToLower
attr title "packets transmitted, count"
scalar NetworkDaisyChain.gPtpBridge1.eth[1].mac txPk:sum(packetBytes) 0
attr interpolationmode none
attr source packetSentToLower
attr title "packets transmitted, sum(packetBytes)"
scalar NetworkDaisyChain.gPtpBridge1.eth[1].mac packetReceivedFromUpper:count 0
attr interpolationmode none
attr source packetReceivedFromUpper
attr title "packet bytes from higher layer, count"
scalar NetworkDaisyChain.gPtpBridge1.eth[1].mac packetReceivedFromUpper:sum(packetBytes) 0
attr interpolationmode none
attr source packetReceivedFromUpper
attr title "packet bytes from higher layer, sum(packetBytes)"
scalar NetworkDaisyChain.gPtpBridge1.eth[1].mac passedUpPk:count 0
attr interpolationmode none
attr source packetSentToUpper
attr title "packets passed to higher layer, count"
scalar NetworkDaisyChain.gPtpBridge1.eth[1].mac passedUpPk:sum(packetBytes) 0
attr interpolationmode none
attr source packetSentToUpper
attr title "packets passed to higher layer, sum(packetBytes)"
scalar NetworkDaisyChain.gPtpBridge1.eth[1].mac packetDropIncorrectlyReceived:count 0
attr interpolationmode none
attr source packetDropReasonIsIncorrectlyReceived(packetDropped)
attr title "packet drop: incorrectly received, count"
scalar NetworkDaisyChain.gPtpBridge1.eth[1].mac packetDropIncorrectlyReceived:sum(packetBytes) 0
attr interpolationmode none
attr source packetDropReasonIsIncorrectlyReceived(packetDropped)
attr title "packet drop: incorrectly received, sum(packetBytes)"
scalar NetworkDaisyChain.gPtpBridge1.eth[1].mac packetDropInterfaceDown:count 0
attr interpolationmode none
attr source packetDropReasonIsInterfaceDown(packetDropped)
attr title "packet drop: interface down, count"
scalar NetworkDaisyChain.gPtpBridge1.eth[1].mac packetDropInterfaceDown:sum(packetBytes) 0
attr interpolationmode none
attr source packetDropReasonIsInterfaceDown(packetDropped)
attr title "packet drop: interface down, sum(packetBytes)"
scalar NetworkDaisyChain.gPtpBridge1.eth[1].mac packetDropNotAddressedToUs:count 0
attr interpolationmode none
attr source packetDropReasonIsNotAddressedToUs(packetDropped)
attr title "packet drop: not addressed to us, count"
scalar NetworkDaisyChain.gPtpBridge1.eth[1].mac packetDropNotAddressedToUs:sum(packetBytes) 0
attr interpolationmode none
attr source packetDropReasonIsNotAddressedToUs(packetDropped)
attr title "packet drop: not addressed to us, sum(packetBytes)"
scalar NetworkDaisyChain.gPtpBridge1.eth[2].mac.queue packetPopped:count 0
attr interpolationmode none
attr title "packet popped, count"
scalar NetworkDaisyChain.gPtpBridge1.eth[2].mac.queue packetPopped:sum(packetBytes) 0
attr interpolationmode none
attr title "packet popped, sum(packetBytes)"
statistic NetworkDaisyChain.gPtpBridge1.eth[2].mac.queue queueingTime:histogram
field count 0
field mean -nan
field stddev -nan
field min -nan
field max -nan
field sum 0
field sqrsum 0
attr interpolationmode none
attr source queueingTime(packetPopped)
attr title "queueing times, histogram"
attr unit s
bin	-inf	0
bin	0	0
bin	1	0
scalar NetworkDaisyChain.gPtpBridge1.eth[2].mac.queue queueLength:max -nan
attr interpolationmode sample-hold
attr source "count(packetPushed) - count(packetPopped) - count(packetRemoved) - count(packetDropped)"
attr title "queue length, max"
scalar NetworkDaisyChain.gPtpBridge1.eth[2].mac.queue queueLength:timeavg -nan
attr interpolationmode sample-hold
attr source "count(packetPushed) - count(packetPopped) - count(packetRemoved) - count(packetDropped)"
attr title "queue length, timeavg"
scalar NetworkDaisyChain.gPtpBridge1.eth[2].mac.queue packetPushed:count 0
attr interpolationmode none
attr title "packet pushed, count"
scalar NetworkDaisyChain.gPtpBridge1.eth[2].mac.queue packetPushed:sum(packetBytes) 0
attr interpolationmode none
attr title "packet pushed, sum(packetBytes)"
scalar NetworkDaisyChain.gPtpBridge1.eth[2].mac.queue packetDropQueueOverflow:count 0
attr interpolationmode none
attr source packetDropReasonIsQueueOverflow(packetDropped)
attr title "packet drops: queue overflow, count"
scalar NetworkDaisyChain.gPtpBridge1.eth[2].mac.queue packetDropQueueOverflow:sum(packetBytes) 0
attr interpolationmode none
attr source packetDropReasonIsQueueOverflow(packetDropped)
attr title "packet drops: queue overflow, sum(packetBytes)"
scalar NetworkDaisyChain.gPtpBridge1.eth[2].mac.queue packetRemoved:count 0
attr interpolationmode none
attr title "packets removed, count"
scalar NetworkDaisyChain.gPtpBridge1.eth[2].mac.queue packetRemoved:sum(packetBytes) 0
attr interpolationmode none
attr title "packets removed, sum(packetBytes)"
scalar NetworkDaisyChain.gPtpBridge1.eth[2].mac "simulated time" 0
scalar NetworkDaisyChain.gPtpBridge1.eth[2].mac full-duplex 1
scalar NetworkDaisyChain.gPtpBridge1.eth[2].mac "rx channel idle (%)" -nan
scalar NetworkDaisyChain.gPtpBridge1.eth[2].mac "rx channel utilization (%)" -nan
scalar NetworkDaisyChain.gPtpBridge1.eth[2].mac "rx channel collision (%)" -nan
scalar NetworkDaisyChain.gPtpBridge1.eth[2].mac collisions 0
scalar NetworkDaisyChain.gPtpBridge1.eth[2].mac backoffs 0
scalar NetworkDaisyChain.gPtpBridge1.eth[2].mac rxPausePkUnits:count 0
attr interpolationmode none
attr title "pause units received, count"
scalar NetworkDaisyChain.gPtpBridge1.eth[2].mac rxPausePkUnits:sum 0
attr interpolationmode none
attr title "pause units received, sum"
scalar NetworkDaisyChain.gPtpBridge1.eth[2].mac txPausePkUnits:count 0
attr interpolationmode none
attr title "pause units sent, count"
scalar NetworkDaisyChain.gPtpBridge1.eth[2].mac txPausePkUnits:sum 0
attr interpolationmode none
attr title "pause units sent, sum"
scalar NetworkDaisyChain.gPtpBridge1.eth[2].mac rxPkOk:count 0
attr interpolationmode none
attr source rxPkOk
attr title "packets received OK, count"
scalar NetworkDaisyChain.gPtpBridge1.eth[2].mac rxPkOk:sum(packetBytes) 0
attr interpolationmode none
attr source rxPkOk
attr title "packets received OK, sum(packetBytes)"
scalar NetworkDaisyChain.gPtpBridge1.eth[2].mac backoffSlotsGenerated:count 0
attr interpolationmode none
attr title "backoff, count"
scalar NetworkDaisyChain.gPtpBridge1.eth[2].mac collision:count 0
attr interpolationmode none
attr title "collision, count"
scalar NetworkDaisyChain.gPtpBridge1.eth[2].mac txPk:count 0
attr interpolationmode none
attr source packetSentToLower
attr title "packets transmitted, count"
scalar NetworkDaisyChain.gPtpBridge1.eth[2].mac txPk:sum(packetBytes) 0
attr interpolationmode none
attr source packetSentToLower
attr title "packets transmitted, sum(packetBytes)"
scalar NetworkDaisyChain.gPtpBridge1.eth[2].mac packetReceivedFromUpper:count 0
attr interpolationmode none
attr source packetReceivedFromUpper
attr title "packet bytes from higher layer, count"
scalar NetworkDaisyChain.gPtpBridge1.eth[2].mac packetReceivedFromUpper:sum(packetBytes) 0
attr interpolationmode none
attr source packetReceivedFromUpper
attr title "packet bytes from higher layer, sum(packetBytes)"
scalar NetworkDaisyChain.gPtpBridge1.eth[2].mac passedUpPk:count 0
attr interpolationmode none
attr source packetSentToUpper
attr title "packets passed to higher layer, count"
scalar NetworkDaisyChain.gPtpBridge1.eth[2].mac passedUpPk:sum(packetBytes) 0
attr interpolationmode none
attr source packetSentToUpper
attr title "packets passed to higher layer, sum(packetBytes)"
scalar NetworkDaisyChain.gPtpBridge1.eth[2].mac packetDropIncorrectlyReceived:count 0
attr interpolationmode none
attr source packetDropReasonIsIncorrectlyReceived(packetDropped)
attr title "packet drop: incorrectly received, count"
scalar NetworkDaisyChain.gPtpBridge1.eth[2].mac packetDropIncorrectlyReceived:sum(packetBytes) 0
attr interpolationmode none
attr source packetDropReasonIsIncorrectlyReceived(packetDropped)
attr title "packet drop: incorrectly received, sum(packetBytes)"
scalar NetworkDaisyChain.gPtpBridge1.eth[2].mac packetDropInterfaceDown:count 0
attr interpolationmode none
attr source packetDropReasonIsInterfaceDown(packetDropped)
attr title "packet drop: interface down, count"
scalar NetworkDaisyChain.gPtpBridge1.eth[2].mac packetDropInterfaceDown:sum(packetBytes) 0
attr interpolationmode none
attr source packetDropReasonIsInterfaceDown(packetDropped)
attr title "packet drop: interface down, sum(packetBytes)"
scalar NetworkDaisyChain.gPtpBridge1.eth[2].mac packetDropNotAddressedToUs:count 0
attr interpolationmode none
attr source packetDropReasonIsNotAddressedToUs(packetDropped)
attr title "packet drop: not addressed to us, count"
scalar NetworkDaisyChain.gPtpBridge1.eth[2].mac packetDropNotAddressedToUs:sum(packetBytes) 0
attr interpolationmode none
attr source packetDropReasonIsNotAddressedToUs(packetDropped)
attr title "packet drop: not addressed to us, sum(packetBytes)"
scalar NetworkDaisyChain.gPtpBridge1.eth[3].mac.queue packetPopped:count 0
attr interpolationmode none
attr title "packet popped, count"
scalar NetworkDaisyChain.gPtpBridge1.eth[3].mac.queue packetPopped:sum(packetBytes) 0
attr interpolationmode none
attr title "packet popped, sum(packetBytes)"
statistic NetworkDaisyChain.gPtpBridge1.eth[3].mac.queue queueingTime:histogram
field count 0
field mean -nan
field stddev -nan
field min -nan
field max -nan
field sum 0
field sqrsum 0
attr interpolationmode none
attr source queueingTime(packetPopped)
attr title "queueing times, histogram"
attr unit s
bin	-inf	0
bin	0	0
bin	1	0
scalar NetworkDaisyChain.gPtpBridge1.eth[3].mac.queue queueLength:max -nan
attr interpolationmode sample-hold
attr source "count(packetPushed) - count(packetPopped) - count(packetRemoved) - count(packetDropped)"
attr title "queue length, max"
scalar NetworkDaisyChain.gPtpBridge1.eth[3].mac.queue queueLength:timeavg -nan
attr interpolationmode sample-hold
attr source "count(packetPushed) - count(packetPopped) - count(packetRemoved) - count(packetDropped)"
attr title "queue length, timeavg"
scalar NetworkDaisyChain.gPtpBridge1.eth[3].mac.queue packetPushed:count 0
attr interpolationmode none
attr title "packet pushed, count"
scalar NetworkDaisyChain.gPtpBridge1.eth[3].mac.queue packetPushed:sum(packetBytes) 0
attr interpolationmode none
attr title "packet pushed, sum(packetBytes)"
scalar NetworkDaisyChain.gPtpBridge1.eth[3].mac.queue packetDropQueueOverflow:count 0
attr interpolationmode none
attr source packetDropReasonIsQueueOverflow(packetDropped)
attr title "packet drops: queue overflow, count"
scalar NetworkDaisyChain.gPtpBridge1.eth[3].mac.queue packetDropQueueOverflow:sum(packetBytes) 0
attr interpolationmode none
attr source packetDropReasonIsQueueOverflow(packetDropped)
attr title "packet drops: queue overflow, sum(packetBytes)"
scalar NetworkDaisyChain.gPtpBridge1.eth[3].mac.queue packetRemoved:count 0
attr interpolationmode none
attr title "packets removed, count"
scalar NetworkDaisyChain.gPtpBridge1.eth[3].mac.queue packetRemoved:sum(packetBytes) 0
attr interpolationmode none
attr title "packets removed, sum(packetBytes)"
scalar NetworkDaisyChain.gPtpBridge1.eth[3].mac "simulated time" 0
scalar NetworkDaisyChain.gPtpBridge1.eth[3].mac full-duplex 1
scalar NetworkDaisyChain.gPtpBridge1.eth[3].mac "rx channel idle (%)" -nan
scalar NetworkDaisyChain.gPtpBridge1.eth[3].mac "rx channel utilization (%)" -nan
scalar NetworkDaisyChain.gPtpBridge1.eth[3].mac "rx channel collision (%)" -nan
scalar NetworkDaisyChain.gPtpBridge1.eth[3].mac collisions 0
scalar NetworkDaisyChain.gPtpBridge1.eth[3].mac backoffs 0
scalar NetworkDaisyChain.gPtpBridge1.eth[3].mac rxPausePkUnits:count 0
attr interpolationmode none
attr title "pause units received, count"
scalar NetworkDaisyChain.gPtpBridge1.eth[3].mac rxPausePkUnits:sum 0
attr interpolationmode none
attr title "pause units received, sum"
scalar NetworkDaisyChain.gPtpBridge1.eth[3].mac txPausePkUnits:count 0
attr interpolationmode none
attr title "pause units sent, count"
scalar NetworkDaisyChain.gPtpBridge1.eth[3].mac txPausePkUnits:sum 0
attr interpolationmode none
attr title "pause units sent, sum"
scalar NetworkDaisyChain.gPtpBridge1.eth[3].mac rxPkOk:count 0
attr interpolationmode none
attr source rxPkOk
attr title "packets received OK, count"
scalar NetworkDaisyChain.gPtpBridge1.eth[3].mac rxPkOk:sum(packetBytes) 0
attr interpolationmode none
attr source rxPkOk
attr title "packets received OK, sum(packetBytes)"
scalar NetworkDaisyChain.gPtpBridge1.eth[3].mac backoffSlotsGenerated:count 0
attr interpolationmode none
attr title "backoff, count"
scalar NetworkDaisyChain.gPtpBridge1.eth[3].mac collision:count 0
attr interpolationmode none
attr title "collision, count"
scalar NetworkDaisyChain.gPtpBridge1.eth[3].mac txPk:count 0
attr interpolationmode none
attr source packetSentToLower
attr title "packets transmitted, count"
scalar NetworkDaisyChain.gPtpBridge1.eth[3].mac txPk:sum(packetBytes) 0
attr interpolationmode none
attr source packetSentToLower
attr title "packets transmitted, sum(packetBytes)"
scalar NetworkDaisyChain.gPtpBridge1.eth[3].mac packetReceivedFromUpper:count 0
attr interpolationmode none
attr source packetReceivedFromUpper
attr title "packet bytes from higher layer, count"
scalar NetworkDaisyChain.gPtpBridge1.eth[3].mac packetReceivedFromUpper:sum(packetBytes) 0
attr interpolationmode none
attr source packetReceivedFromUpper
attr title "packet bytes from higher layer, sum(packetBytes)"
scalar NetworkDaisyChain.gPtpBridge1.eth[3].mac passedUpPk:count 0
attr interpolationmode none
attr source packetSentToUpper
attr title "packets passed to higher layer, count"
scalar NetworkDaisyChain.gPtpBridge1.eth[3].mac passedUpPk:sum(packetBytes) 0
attr interpolationmode none
attr source packetSentToUpper
attr title "packets passed to higher layer, sum(packetBytes)"
scalar NetworkDaisyChain.gPtpBridge1.eth[3].mac packetDropIncorrectlyReceived:count 0
attr interpolationmode none
attr source packetDropReasonIsIncorrectlyReceived(packetDropped)
attr title "packet drop: incorrectly received, count"
scalar NetworkDaisyChain.gPtpBridge1.eth[3].mac packetDropIncorrectlyReceived:sum(packetBytes) 0
attr interpolationmode none
attr source packetDropReasonIsIncorrectlyReceived(packetDropped)
attr title "packet drop: incorrectly received, sum(packetBytes)"
scalar NetworkDaisyChain.gPtpBridge1.eth[3].mac packetDropInterfaceDown:count 0
attr interpolationmode none
attr source packetDropReasonIsInterfaceDown(packetDropped)
attr title "packet drop: interface down, count"
scalar NetworkDaisyChain.gPtpBridge1.eth[3].mac packetDropInterfaceDown:sum(packetBytes) 0
attr interpolationmode none
attr source packetDropReasonIsInterfaceDown(packetDropped)
attr title "packet drop: interface down, sum(packetBytes)"
scalar NetworkDaisyChain.gPtpBridge1.eth[3].mac packetDropNotAddressedToUs:count 0
attr interpolationmode none
attr source packetDropReasonIsNotAddressedToUs(packetDropped)
attr title "packet drop: not addressed to us, count"
scalar NetworkDaisyChain.gPtpBridge1.eth[3].mac packetDropNotAddressedToUs:sum(packetBytes) 0
attr interpolationmode none
attr source packetDropReasonIsNotAddressedToUs(packetDropped)
attr title "packet drop: not addressed to us, sum(packetBytes)"
scalar NetworkDaisyChain.gPtpBridge1.eth[4].mac.queue packetPopped:count 0
attr interpolationmode none
attr title "packet popped, count"
scalar NetworkDaisyChain.gPtpBridge1.eth[4].mac.queue packetPopped:sum(packetBytes) 0
attr interpolationmode none
attr title "packet popped, sum(packetBytes)"
statistic NetworkDaisyChain.gPtpBridge1.eth[4].mac.queue queueingTime:histogram
field count 0
field mean -nan
field stddev -nan
field min -nan
field max -nan
field sum 0
field sqrsum 0
attr interpolationmode none
attr source queueingTime(packetPopped)
attr title "queueing times, histogram"
attr unit s
bin	-inf	0
bin	0	0
bin	1	0
scalar NetworkDaisyChain.gPtpBridge1.eth[4].mac.queue queueLength:max -nan
attr interpolationmode sample-hold
attr source "count(packetPushed) - count(packetPopped) - count(packetRemoved) - count(packetDropped)"
attr title "queue length, max"
scalar NetworkDaisyChain.gPtpBridge1.eth[4].mac.queue queueLength:timeavg -nan
attr interpolationmode sample-hold
attr source "count(packetPushed) - count(packetPopped) - count(packetRemoved) - count(packetDropped)"
attr title "queue length, timeavg"
scalar NetworkDaisyChain.gPtpBridge1.eth[4].mac.queue packetPushed:count 0
attr interpolationmode none
attr title "packet pushed, count"
scalar NetworkDaisyChain.gPtpBridge1.eth[4].mac.queue packetPushed:sum(packetBytes) 0
attr interpolationmode none
attr title "packet pushed, sum(packetBytes)"
scalar NetworkDaisyChain.gPtpBridge1.eth[4].mac.queue packetDropQueueOverflow:count 0
attr interpolationmode none
attr source packetDropReasonIsQueueOverflow(packetDropped)
attr title "packet drops: queue overflow, count"
scalar NetworkDaisyChain.gPtpBridge1.eth[4].mac.queue packetDropQueueOverflow:sum(packetBytes) 0
attr interpolationmode none
attr source packetDropReasonIsQueueOverflow(packetDropped)
attr title "packet drops: queue overflow, sum(packetBytes)"
scalar NetworkDaisyChain.gPtpBridge1.eth[4].mac.queue packetRemoved:count 0
attr interpolationmode none
attr title "packets removed, count"
scalar NetworkDaisyChain.gPtpBridge1.eth[4].mac.queue packetRemoved:sum(packetBytes) 0
attr interpolationmode none
attr title "packets removed, sum(packetBytes)"
scalar NetworkDaisyChain.gPtpBridge1.eth[4].mac "simulated time" 0
scalar NetworkDaisyChain.gPtpBridge1.eth[4].mac full-duplex 1
scalar NetworkDaisyChain.gPtpBridge1.eth[4].mac "rx channel idle (%)" -nan
scalar NetworkDaisyChain.gPtpBridge1.eth[4].mac "rx channel utilization (%)" -nan
scalar NetworkDaisyChain.gPtpBridge1.eth[4].mac "rx channel collision (%)" -nan
scalar NetworkDaisyChain.gPtpBridge1.eth[4].mac collisions 0
scalar NetworkDaisyChain.gPtpBridge1.eth[4].mac backoffs 0
scalar NetworkDaisyChain.gPtpBridge1.eth[4].mac rxPausePkUnits:count 0
attr interpolationmode none
attr title "pause units received, count"
scalar NetworkDaisyChain.gPtpBridge1.eth[4].mac rxPausePkUnits:sum 0
attr interpolationmode none
attr title "pause units received, sum"
scalar NetworkDaisyChain.gPtpBridge1.eth[4].mac txPausePkUnits:count 0
attr interpolationmode none
attr title "pause units sent, count"
scalar NetworkDaisyChain.gPtpBridge1.eth[4].mac txPausePkUnits:sum 0
attr interpolationmode none
attr title "pause units sent, sum"
scalar NetworkDaisyChain.gPtpBridge1.eth[4].mac rxPkOk:count 0
attr interpolationmode none
attr source rxPkOk
attr title "packets received OK, count"
scalar NetworkDaisyChain.gPtpBridge1.eth[4].mac rxPkOk:sum(packetBytes) 0
attr interpolationmode none
attr source rxPkOk
attr title "packets received OK, sum(packetBytes)"
scalar NetworkDaisyChain.gPtpBridge1.eth[4].mac backoffSlotsGenerated:count 0
attr interpolationmode none
attr title "backoff, count"
scalar NetworkDaisyChain.gPtpBridge1.eth[4].mac collision:count 0
attr interpolationmode none
attr title "collision, count"
scalar NetworkDaisyChain.gPtpBridge1.eth[4].mac txPk:count 0
attr interpolationmode none
attr source packetSentToLower
attr title "packets transmitted, count"
scalar NetworkDaisyChain.gPtpBridge1.eth[4].mac txPk:sum(packetBytes) 0
attr interpolationmode none
attr source packetSentToLower
attr title "packets transmitted, sum(packetBytes)"
scalar NetworkDaisyChain.gPtpBridge1.eth[4].mac packetReceivedFromUpper:count 0
attr interpolationmode none
attr source packetReceivedFromUpper
attr title "packet bytes from higher layer, count"
scalar NetworkDaisyChain.gPtpBridge1.eth[4].mac packetReceivedFromUpper:sum(packetBytes) 0
attr interpolationmode none
attr source packetReceivedFromUpper
attr title "packet bytes from higher layer, sum(packetBytes)"
scalar NetworkDaisyChain.gPtpBridge1.eth[4].mac passedUpPk:count 0
attr interpolationmode none
attr source packetSentToUpper
attr title "packets passed to higher layer, count"
scalar NetworkDaisyChain.gPtpBridge1.eth[4].mac passedUpPk:sum(packetBytes) 0
attr interpolationmode none
attr source packetSentToUpper
attr title "packets passed to higher layer, sum(packetBytes)"
scalar NetworkDaisyChain.gPtpBridge1.eth[4].mac packetDropIncorrectlyReceived:count 0
attr interpolationmode none
attr source packetDropReasonIsIncorrectlyReceived(packetDropped)
attr title "packet drop: incorrectly received, count"
scalar NetworkDaisyChain.gPtpBridge1.eth[4].mac packetDropIncorrectlyReceived:sum(packetBytes) 0
attr interpolationmode none
attr source packetDropReasonIsIncorrectlyReceived(packetDropped)
attr title "packet drop: incorrectly received, sum(packetBytes)"
scalar NetworkDaisyChain.gPtpBridge1.eth[4].mac packetDropInterfaceDown:count 0
attr interpolationmode none
attr source packetDropReasonIsInterfaceDown(packetDropped)
attr title "packet drop: interface down, count"
scalar NetworkDaisyChain.gPtpBridge1.eth[4].mac packetDropInterfaceDown:sum(packetBytes) 0
attr interpolationmode none
attr source packetDropReasonIsInterfaceDown(packetDropped)
attr title "packet drop: interface down, sum(packetBytes)"
scalar NetworkDaisyChain.gPtpBridge1.eth[4].mac packetDropNotAddressedToUs:count 0
attr interpolationmode none
attr source packetDropReasonIsNotAddressedToUs(packetDropped)
attr title "packet drop: not addressed to us, count"
scalar NetworkDaisyChain.gPtpBridge1.eth[4].mac packetDropNotAddressedToUs:sum(packetBytes) 0
attr interpolationmode none
attr source packetDropReasonIsNotAddressedToUs(packetDropped)
attr title "packet drop: not addressed to us, sum(packetBytes)"
scalar NetworkDaisyChain.gPtpBridge1.encap pauseSent:count 0
attr title "pause sent, count"
scalar NetworkDaisyChain.gPtpBridge1.encap pauseSent:sum 0
attr title "pause sent, sum"
scalar NetworkDaisyChain.gPtpBridge1.encap decapPk:count 0
attr interpolationmode none
attr source decapPk
attr title "packets decapsulated, count"
scalar NetworkDaisyChain.gPtpBridge1.encap decapPk:sum(packetBytes) 0
attr interpolationmode none
attr source decapPk
attr title "packets decapsulated, sum(packetBytes)"
scalar NetworkDaisyChain.gPtpBridge1.encap encapPk:count 0
attr interpolationmode none
attr source encapPk
attr title "packets encapsulated, count"
scalar NetworkDaisyChain.gPtpBridge1.encap encapPk:sum(packetBytes) 0
attr interpolationmode none
attr source encapPk
attr title "packets encapsulated, sum(packetBytes)"
scalar NetworkDaisyChain.gPtpBridge2.relayUnit "number of received BPDUs from STP module" 0
scalar NetworkDaisyChain.gPtpBridge2.relayUnit "number of received frames from network (including BPDUs)" 0
scalar NetworkDaisyChain.gPtpBridge2.relayUnit "number of dropped frames (including BPDUs)" 0
scalar NetworkDaisyChain.gPtpBridge2.relayUnit "number of delivered BPDUs to the STP module" 0
scalar NetworkDaisyChain.gPtpBridge2.relayUnit "number of dispatched BPDU frames to the network" 0
scalar NetworkDaisyChain.gPtpBridge2.relayUnit "number of dispatched non-BDPU frames to the network" 0
scalar NetworkDaisyChain.gPtpBridge2.eth[0].mac.queue packetPopped:count 0
attr interpolationmode none
attr title "packet popped, count"
scalar NetworkDaisyChain.gPtpBridge2.eth[0].mac.queue packetPopped:sum(packetBytes) 0
attr interpolationmode none
attr title "packet popped, sum(packetBytes)"
statistic NetworkDaisyChain.gPtpBridge2.eth[0].mac.queue queueingTime:histogram
field count 0
field mean -nan
field stddev -nan
field min -nan
field max -nan
field sum 0
field sqrsum 0
attr interpolationmode none
attr source queueingTime(packetPopped)
attr title "queueing times, histogram"
attr unit s
bin	-inf	0
bin	0	0
bin	1	0
scalar NetworkDaisyChain.gPtpBridge2.eth[0].mac.queue queueLength:max -nan
attr interpolationmode sample-hold
attr source "count(packetPushed) - count(packetPopped) - count(packetRemoved) - count(packetDropped)"
attr title "queue length, max"
scalar NetworkDaisyChain.gPtpBridge2.eth[0].mac.queue queueLength:timeavg -nan
attr interpolationmode sample-hold
attr source "count(packetPushed) - count(packetPopped) - count(packetRemoved) - count(packetDropped)"
attr title "queue length, timeavg"
scalar NetworkDaisyChain.gPtpBridge2.eth[0].mac.queue packetPushed:count 0
attr interpolationmode none
attr title "packet pushed, count"
scalar NetworkDaisyChain.gPtpBridge2.eth[0].mac.queue packetPushed:sum(packetBytes) 0
attr interpolationmode none
attr title "packet pushed, sum(packetBytes)"
scalar NetworkDaisyChain.gPtpBridge2.eth[0].mac.queue packetDropQueueOverflow:count 0
attr interpolationmode none
attr source packetDropReasonIsQueueOverflow(packetDropped)
attr title "packet drops: queue overflow, count"
scalar NetworkDaisyChain.gPtpBridge2.eth[0].mac.queue packetDropQueueOverflow:sum(packetBytes) 0
attr interpolationmode none
attr source packetDropReasonIsQueueOverflow(packetDropped)
attr title "packet drops: queue overflow, sum(packetBytes)"
scalar NetworkDaisyChain.gPtpBridge2.eth[0].mac.queue packetRemoved:count 0
attr interpolationmode none
attr title "packets removed, count"
scalar NetworkDaisyChain.gPtpBridge2.eth[0].mac.queue packetRemoved:sum(packetBytes) 0
attr interpolationmode none
attr title "packets removed, sum(packetBytes)"
scalar NetworkDaisyChain.gPtpBridge2.eth[0].mac "simulated time" 0
scalar NetworkDaisyChain.gPtpBridge2.eth[0].mac full-duplex 1
scalar NetworkDaisyChain.gPtpBridge2.eth[0].mac "rx channel idle (%)" -nan
scalar NetworkDaisyChain.gPtpBridge2.eth[0].mac "rx channel utilization (%)" -nan
scalar NetworkDaisyChain.gPtpBridge2.eth[0].mac "rx channel collision (%)" -nan
scalar NetworkDaisyChain.gPtpBridge2.eth[0].mac collisions 0
scalar NetworkDaisyChain.gPtpBridge2.eth[0].mac backoffs 0
scalar NetworkDaisyChain.gPtpBridge2.eth[0].mac rxPausePkUnits:count 0
attr interpolationmode none
attr title "pause units received, count"
scalar NetworkDaisyChain.gPtpBridge2.eth[0].mac rxPausePkUnits:sum 0
attr interpolationmode none
attr title "pause units received, sum"
scalar NetworkDaisyChain.gPtpBridge2.eth[0].mac txPausePkUnits:count 0
attr interpolationmode none
attr title "pause units sent, count"
scalar NetworkDaisyChain.gPtpBridge2.eth[0].mac txPausePkUnits:sum 0
attr interpolationmode none
attr title "pause units sent, sum"
scalar NetworkDaisyChain.gPtpBridge2.eth[0].mac rxPkOk:count 0
attr interpolationmode none
attr source rxPkOk
attr title "packets received OK, count"
scalar NetworkDaisyChain.gPtpBridge2.eth[0].mac rxPkOk:sum(packetBytes) 0
attr interpolationmode none
attr source rxPkOk
attr title "packets received OK, sum(packetBytes)"
scalar NetworkDaisyChain.gPtpBridge2.eth[0].mac backoffSlotsGenerated:count 0
attr interpolationmode none
attr title "backoff, count"
scalar NetworkDaisyChain.gPtpBridge2.eth[0].mac collision:count 0
attr interpolationmode none
attr title "collision, count"
scalar NetworkDaisyChain.gPtpBridge2.eth[0].mac txPk:count 0
attr interpolationmode none
attr source packetSentToLower
attr title "packets transmitted, count"
scalar NetworkDaisyChain.gPtpBridge2.eth[0].mac txPk:sum(packetBytes) 0
attr interpolationmode none
attr source packetSentToLower
attr title "packets transmitted, sum(packetBytes)"
scalar NetworkDaisyChain.gPtpBridge2.eth[0].mac packetReceivedFromUpper:count 0
attr interpolationmode none
attr source packetReceivedFromUpper
attr title "packet bytes from higher layer, count"
scalar NetworkDaisyChain.gPtpBridge2.eth[0].mac packetReceivedFromUpper:sum(packetBytes) 0
attr interpolationmode none
attr source packetReceivedFromUpper
attr title "packet bytes from higher layer, sum(packetBytes)"
scalar NetworkDaisyChain.gPtpBridge2.eth[0].mac passedUpPk:count 0
attr interpolationmode none
attr source packetSentToUpper
attr title "packets passed to higher layer, count"
scalar NetworkDaisyChain.gPtpBridge2.eth[0].mac passedUpPk:sum(packetBytes) 0
attr interpolationmode none
attr source packetSentToUpper
attr title "packets passed to higher layer, sum(packetBytes)"
scalar NetworkDaisyChain.gPtpBridge2.eth[0].mac packetDropIncorrectlyReceived:count 0
attr interpolationmode none
attr source packetDropReasonIsIncorrectlyReceived(packetDropped)
attr title "packet drop: incorrectly received, count"
scalar NetworkDaisyChain.gPtpBridge2.eth[0].mac packetDropIncorrectlyReceived:sum(packetBytes) 0
attr interpolationmode none
attr source packetDropReasonIsIncorrectlyReceived(packetDropped)
attr title "packet drop: incorrectly received, sum(packetBytes)"
scalar NetworkDaisyChain.gPtpBridge2.eth[0].mac packetDropInterfaceDown:count 0
attr interpolationmode none
attr source packetDropReasonIsInterfaceDown(packetDropped)
attr title "packet drop: interface down, count"
scalar NetworkDaisyChain.gPtpBridge2.eth[0].mac packetDropInterfaceDown:sum(packetBytes) 0
attr interpolationmode none
attr source packetDropReasonIsInterfaceDown(packetDropped)
attr title "packet drop: interface down, sum(packetBytes)"
scalar NetworkDaisyChain.gPtpBridge2.eth[0].mac packetDropNotAddressedToUs:count 0
attr interpolationmode none
attr source packetDropReasonIsNotAddressedToUs(packetDropped)
attr title "packet drop: not addressed to us, count"
scalar NetworkDaisyChain.gPtpBridge2.eth[0].mac packetDropNotAddressedToUs:sum(packetBytes) 0
attr interpolationmode none
attr source packetDropReasonIsNotAddressedToUs(packetDropped)
attr title "packet drop: not addressed to us, sum(packetBytes)"
scalar NetworkDaisyChain.gPtpBridge2.eth[1].mac.queue packetPopped:count 0
attr interpolationmode none
attr title "packet popped, count"
scalar NetworkDaisyChain.gPtpBridge2.eth[1].mac.queue packetPopped:sum(packetBytes) 0
attr interpolationmode none
attr title "packet popped, sum(packetBytes)"
statistic NetworkDaisyChain.gPtpBridge2.eth[1].mac.queue queueingTime:histogram
field count 0
field mean -nan
field stddev -nan
field min -nan
field max -nan
field sum 0
field sqrsum 0
attr interpolationmode none
attr source queueingTime(packetPopped)
attr title "queueing times, histogram"
attr unit s
bin	-inf	0
bin	0	0
bin	1	0
scalar NetworkDaisyChain.gPtpBridge2.eth[1].mac.queue queueLength:max -nan
attr interpolationmode sample-hold
attr source "count(packetPushed) - count(packetPopped) - count(packetRemoved) - count(packetDropped)"
attr title "queue length, max"
scalar NetworkDaisyChain.gPtpBridge2.eth[1].mac.queue queueLength:timeavg -nan
attr interpolationmode sample-hold
attr source "count(packetPushed) - count(packetPopped) - count(packetRemoved) - count(packetDropped)"
attr title "queue length, timeavg"
scalar NetworkDaisyChain.gPtpBridge2.eth[1].mac.queue packetPushed:count 0
attr interpolationmode none
attr title "packet pushed, count"
scalar NetworkDaisyChain.gPtpBridge2.eth[1].mac.queue packetPushed:sum(packetBytes) 0
attr interpolationmode none
attr title "packet pushed, sum(packetBytes)"
scalar NetworkDaisyChain.gPtpBridge2.eth[1].mac.queue packetDropQueueOverflow:count 0
attr interpolationmode none
attr source packetDropReasonIsQueueOverflow(packetDropped)
attr title "packet drops: queue overflow, count"
scalar NetworkDaisyChain.gPtpBridge2.eth[1].mac.queue packetDropQueueOverflow:sum(packetBytes) 0
attr interpolationmode none
attr source packetDropReasonIsQueueOverflow(packetDropped)
attr title "packet drops: queue overflow, sum(packetBytes)"
scalar NetworkDaisyChain.gPtpBridge2.eth[1].mac.queue packetRemoved:count 0
attr interpolationmode none
attr title "packets removed, count"
scalar NetworkDaisyChain.gPtpBridge2.eth[1].mac.queue packetRemoved:sum(packetBytes) 0
attr interpolationmode none
attr title "packets removed, sum(packetBytes)"
scalar NetworkDaisyChain.gPtpBridge2.eth[1].mac "simulated time" 0
scalar NetworkDaisyChain.gPtpBridge2.eth[1].mac full-duplex 1
scalar NetworkDaisyChain.gPtpBridge2.eth[1].mac "rx channel idle (%)" -nan
scalar NetworkDaisyChain.gPtpBridge2.eth[1].mac "rx channel utilization (%)" -nan
scalar NetworkDaisyChain.gPtpBridge2.eth[1].mac "rx channel collision (%)" -nan
scalar NetworkDaisyChain.gPtpBridge2.eth[1].mac collisions 0
scalar NetworkDaisyChain.gPtpBridge2.eth[1].mac backoffs 0
scalar NetworkDaisyChain.gPtpBridge2.eth[1].mac rxPausePkUnits:count 0
attr interpolationmode none
attr title "pause units received, count"
scalar NetworkDaisyChain.gPtpBridge2.eth[1].mac rxPausePkUnits:sum 0
attr interpolationmode none
attr title "pause units received, sum"
scalar NetworkDaisyChain.gPtpBridge2.eth[1].mac txPausePkUnits:count 0
attr interpolationmode none
attr title "pause units sent, count"
scalar NetworkDaisyChain.gPtpBridge2.eth[1].mac txPausePkUnits:sum 0
attr interpolationmode none
attr title "pause units sent, sum"
scalar NetworkDaisyChain.gPtpBridge2.eth[1].mac rxPkOk:count 0
attr interpolationmode none
attr source rxPkOk
attr title "packets received OK, count"
scalar NetworkDaisyChain.gPtpBridge2.eth[1].mac rxPkOk:sum(packetBytes) 0
attr interpolationmode none
attr source rxPkOk
attr title "packets received OK, sum(packetBytes)"
scalar NetworkDaisyChain.gPtpBridge2.eth[1].mac backoffSlotsGenerated:count 0
attr interpolationmode none
attr title "backoff, count"
scalar NetworkDaisyChain.gPtpBridge2.eth[1].mac collision:count 0
attr interpolationmode none
attr title "collision, count"
scalar NetworkDaisyChain.gPtpBridge2.eth[1].mac txPk:count 0
attr interpolationmode none
attr source packetSentToLower
attr title "packets transmitted, count"
scalar NetworkDaisyChain.gPtpBridge2.eth[1].mac txPk:sum(packetBytes) 0
attr interpolationmode none
attr source packetSentToLower
attr title "packets transmitted, sum(packetBytes)"
scalar NetworkDaisyChain.gPtpBridge2.eth[1].mac packetReceivedFromUpper:count 0
attr interpolationmode none
attr source packetReceivedFromUpper
attr title "packet bytes from higher layer, count"
scalar NetworkDaisyChain.gPtpBridge2.eth[1].mac packetReceivedFromUpper:sum(packetBytes) 0
attr interpolationmode none
attr source packetReceivedFromUpper
attr title "packet bytes from higher layer, sum(packetBytes)"
scalar NetworkDaisyChain.gPtpBridge2.eth[1].mac passedUpPk:count 0
attr interpolationmode none
attr source packetSentToUpper
attr title "packets passed to higher layer, count"
scalar NetworkDaisyChain.gPtpBridge2.eth[1].mac passedUpPk:sum(packetBytes) 0
attr interpolationmode none
attr source packetSentToUpper
attr title "packets passed to higher layer, sum(packetBytes)"
scalar NetworkDaisyChain.gPtpBridge2.eth[1].mac packetDropIncorrectlyReceived:count 0
attr interpolationmode none
[...]
attr source packetReceivedFromUpper
attr title "packet bytes from higher layer, sum(packetBytes)"
scalar NetworkDaisyChain.gPtpSlave6.eth[0].mac passedUpPk:count 0
attr interpolationmode none
attr source packetSentToUpper
attr title "packets passed to higher layer, count"
scalar NetworkDaisyChain.gPtpSlave6.eth[0].mac passedUpPk:sum(packetBytes) 0
attr interpolationmode none
attr source packetSentToUpper
attr title "packets passed to higher layer, sum(packetBytes)"
scalar NetworkDaisyChain.gPtpSlave6.eth[0].mac packetDropIncorrectlyReceived:count 0
attr interpolationmode none
attr source packetDropReasonIsIncorrectlyReceived(packetDropped)
attr title "packet drop: incorrectly received, count"
scalar NetworkDaisyChain.gPtpSlave6.eth[0].mac packetDropIncorrectlyReceived:sum(packetBytes) 0
attr interpolationmode none
attr source packetDropReasonIsIncorrectlyReceived(packetDropped)
attr title "packet drop: incorrectly received, sum(packetBytes)"
scalar NetworkDaisyChain.gPtpSlave6.eth[0].mac packetDropInterfaceDown:count 0
attr interpolationmode none
attr source packetDropReasonIsInterfaceDown(packetDropped)
attr title "packet drop: interface down, count"
scalar NetworkDaisyChain.gPtpSlave6.eth[0].mac packetDropInterfaceDown:sum(packetBytes) 0
attr interpolationmode none
attr source packetDropReasonIsInterfaceDown(packetDropped)
attr title "packet drop: interface down, sum(packetBytes)"
scalar NetworkDaisyChain.gPtpSlave6.eth[0].mac packetDropNotAddressedToUs:count 0
attr interpolationmode none
attr source packetDropReasonIsNotAddressedToUs(packetDropped)
attr title "packet drop: not addressed to us, count"
scalar NetworkDaisyChain.gPtpSlave6.eth[0].mac packetDropNotAddressedToUs:sum(packetBytes) 0
attr interpolationmode none
attr source packetDropReasonIsNotAddressedToUs(packetDropped)
attr title "packet drop: not addressed to us, sum(packetBytes)"
scalar NetworkDaisyChain.gPtpSlave6.eth[0].encap pauseSent:count 0
attr title "pause sent, count"
scalar NetworkDaisyChain.gPtpSlave6.eth[0].encap pauseSent:sum 0
attr title "pause sent, sum"
scalar NetworkDaisyChain.gPtpSlave6.eth[0].encap decapPk:count 0
attr interpolationmode none
attr source decapPk
attr title "packets decapsulated, count"
scalar NetworkDaisyChain.gPtpSlave6.eth[0].encap decapPk:sum(packetBytes) 0
attr interpolationmode none
attr source decapPk
attr title "packets decapsulated, sum(packetBytes)"
scalar NetworkDaisyChain.gPtpSlave6.eth[0].encap encapPk:count 0
attr interpolationmode none
attr source encapPk
attr title "packets encapsulated, count"
scalar NetworkDaisyChain.gPtpSlave6.eth[0].encap encapPk:sum(packetBytes) 0
attr interpolationmode none
attr source encapPk
attr title "packets encapsulated, sum(packetBytes)"
scalar NetworkDaisyChain.gPtpSlave6.ipv4.ip packetDropAddressResolutionFailed:count 0
attr interpolationmode none
attr source packetDropReasonIsAddressResolutionFailed(packetDropped)
attr title "packet drop: address resolution failed, count"
scalar NetworkDaisyChain.gPtpSlave6.ipv4.ip packetDropAddressResolutionFailed:sum(packetBytes) 0
attr interpolationmode none
attr source packetDropReasonIsAddressResolutionFailed(packetDropped)
attr title "packet drop: address resolution failed, sum(packetBytes)"
scalar NetworkDaisyChain.gPtpSlave6.ipv4.ip packetDropHopLimitReached:count 0
attr interpolationmode none
attr source packetDropReasonIsHopLimitReached(packetDropped)
attr title "packet drop: hop limit reached, count"
scalar NetworkDaisyChain.gPtpSlave6.ipv4.ip packetDropHopLimitReached:sum(packetBytes) 0
attr interpolationmode none
attr source packetDropReasonIsHopLimitReached(packetDropped)
attr title "packet drop: hop limit reached, sum(packetBytes)"
scalar NetworkDaisyChain.gPtpSlave6.ipv4.ip packetDropForwardingDisabled:count 0
attr interpolationmode none
attr source packetDropReasonIsForwardingDisabled(packetDropped)
attr title "packet drop: forwarding disabled, count"
scalar NetworkDaisyChain.gPtpSlave6.ipv4.ip packetDropForwardingDisabled:sum(packetBytes) 0
attr interpolationmode none
attr source packetDropReasonIsForwardingDisabled(packetDropped)
attr title "packet drop: forwarding disabled, sum(packetBytes)"
scalar NetworkDaisyChain.gPtpSlave6.ipv4.ip packetDropNoInterfaceFound:count 0
attr interpolationmode none
attr source packetDropReasonIsNoInterfaceFound(packetDropped)
attr title "packet drop: no interface found, count"
scalar NetworkDaisyChain.gPtpSlave6.ipv4.ip packetDropNoInterfaceFound:sum(packetBytes) 0
attr interpolationmode none
attr source packetDropReasonIsNoInterfaceFound(packetDropped)
attr title "packet drop: no interface found, sum(packetBytes)"
scalar NetworkDaisyChain.gPtpSlave6.ipv4.ip packetDropNoRouteFound:count 0
attr interpolationmode none
attr source packetDropReasonIsNoRouteFound(packetDropped)
attr title "packet drop: no route found, count"
scalar NetworkDaisyChain.gPtpSlave6.ipv4.ip packetDropNoRouteFound:sum(packetBytes) 0
attr interpolationmode none
attr source packetDropReasonIsNoRouteFound(packetDropped)
attr title "packet drop: no route found, sum(packetBytes)"
scalar NetworkDaisyChain.gPtpSlave6.ipv4.ip packetDropUndefined:count 0
attr interpolationmode none
attr source packetDropReasonIsUndefined(packetDropped)
attr title "packet drop: undefined, count"
scalar NetworkDaisyChain.gPtpSlave6.ipv4.ip packetDropUndefined:sum(packetBytes) 0
attr interpolationmode none
attr source packetDropReasonIsUndefined(packetDropped)
attr title "packet drop: undefined, sum(packetBytes)"
scalar NetworkDaisyChain.gPtpSlave6.ipv4.arp arpResolutionFailed:count 0
attr title "ARP failed resolutions, count"
scalar NetworkDaisyChain.gPtpSlave6.ipv4.arp arpResolutionCompleted:count 0
attr title "ARP completed resolutions, count"
scalar NetworkDaisyChain.gPtpSlave6.ipv4.arp arpResolutionInitiated:count 0
attr title "ARP initiated resolutions, count"
scalar NetworkDaisyChain.gPtpSlave6.ipv4.arp arpReplySent:count 0
attr source arpReplySent
attr title "ARP replies sent, count"
scalar NetworkDaisyChain.gPtpSlave6.ipv4.arp arpReplySent:sum(packetBytes) 0
attr source arpReplySent
attr title "ARP replies sent, sum(packetBytes)"
scalar NetworkDaisyChain.gPtpSlave6.ipv4.arp arpRequestSent:count 0
attr source arpRequestSent
attr title "ARP request sent, count"
scalar NetworkDaisyChain.gPtpSlave6.ipv4.arp arpRequestSent:sum(packetBytes) 0
attr source arpRequestSent
attr title "ARP request sent, sum(packetBytes)"
scalar NetworkDaisyChain.gPtpSlave6.udp packetReceived:count 0
attr interpolationmode none
attr source packetReceived
attr title "packets received, count"
scalar NetworkDaisyChain.gPtpSlave6.udp packetReceived:sum(packetBytes) 0
attr interpolationmode none
attr source packetReceived
attr title "packets received, sum(packetBytes)"
scalar NetworkDaisyChain.gPtpSlave6.udp packetSent:count 0
attr interpolationmode none
attr source packetSent
attr title "packets sent, count"
scalar NetworkDaisyChain.gPtpSlave6.udp packetSent:sum(packetBytes) 0
attr interpolationmode none
attr source packetSent
attr title "packets sent, sum(packetBytes)"
scalar NetworkDaisyChain.gPtpSlave6.udp passedUpPk:count 0
attr interpolationmode none
attr source packetSentToUpper
attr title "packets passed up, count"
scalar NetworkDaisyChain.gPtpSlave6.udp droppedPkWrongPort:count 0
attr interpolationmode none
attr source packetDropReasonIsNoPortFound(packetDropped)
attr title "packets dropped (wrong port), count"
scalar NetworkDaisyChain.gPtpSlave6.udp droppedPkBadChecksum:count 0
attr interpolationmode none
attr source packetDropReasonIsIncorrectlyReceived(packetDropped)
attr title "packets dropped (checksum error), count"
scalar NetworkDaisyChain.gPtpSlave7.lo[0].lo rcvdPkFromHl:count 0
attr interpolationmode none
attr source packetReceivedFromUpper
attr title "packets received from higher layer, count"
scalar NetworkDaisyChain.gPtpSlave7.lo[0].lo rcvdPkFromHl:sum(packetBytes) 0
attr interpolationmode none
attr source packetReceivedFromUpper
attr title "packets received from higher layer, sum(packetBytes)"
scalar NetworkDaisyChain.gPtpSlave7.lo[0].lo passedUpPk:count 0
attr interpolationmode none
attr source packetSentToUpper
attr title "packets passed to higher layer, count"
scalar NetworkDaisyChain.gPtpSlave7.lo[0].lo passedUpPk:sum(packetBytes) 0
attr interpolationmode none
attr source packetSentToUpper
attr title "packets passed to higher layer, sum(packetBytes)"
scalar NetworkDaisyChain.gPtpSlave7.eth[0].mac.queue packetPopped:count 0
attr interpolationmode none
attr title "packet popped, count"
scalar NetworkDaisyChain.gPtpSlave7.eth[0].mac.queue packetPopped:sum(packetBytes) 0
attr interpolationmode none
attr title "packet popped, sum(packetBytes)"
statistic NetworkDaisyChain.gPtpSlave7.eth[0].mac.queue queueingTime:histogram
field count 0
field mean -nan
field stddev -nan
field min -nan
field max -nan
field sum 0
field sqrsum 0
attr interpolationmode none
attr source queueingTime(packetPopped)
attr title "queueing times, histogram"
attr unit s
bin	-inf	0
bin	0	0
bin	1	0
scalar NetworkDaisyChain.gPtpSlave7.eth[0].mac.queue queueLength:max -nan
attr interpolationmode sample-hold
attr source "count(packetPushed) - count(packetPopped) - count(packetRemoved) - count(packetDropped)"
attr title "queue length, max"
scalar NetworkDaisyChain.gPtpSlave7.eth[0].mac.queue queueLength:timeavg -nan
attr interpolationmode sample-hold
attr source "count(packetPushed) - count(packetPopped) - count(packetRemoved) - count(packetDropped)"
attr title "queue length, timeavg"
scalar NetworkDaisyChain.gPtpSlave7.eth[0].mac.queue packetPushed:count 0
attr interpolationmode none
attr title "packet pushed, count"
scalar NetworkDaisyChain.gPtpSlave7.eth[0].mac.queue packetPushed:sum(packetBytes) 0
attr interpolationmode none
attr title "packet pushed, sum(packetBytes)"
scalar NetworkDaisyChain.gPtpSlave7.eth[0].mac.queue packetDropQueueOverflow:count 0
attr interpolationmode none
attr source packetDropReasonIsQueueOverflow(packetDropped)
attr title "packet drops: queue overflow, count"
scalar NetworkDaisyChain.gPtpSlave7.eth[0].mac.queue packetDropQueueOverflow:sum(packetBytes) 0
attr interpolationmode none
attr source packetDropReasonIsQueueOverflow(packetDropped)
attr title "packet drops: queue overflow, sum(packetBytes)"
scalar NetworkDaisyChain.gPtpSlave7.eth[0].mac.queue packetRemoved:count 0
attr interpolationmode none
attr title "packets removed, count"
scalar NetworkDaisyChain.gPtpSlave7.eth[0].mac.queue packetRemoved:sum(packetBytes) 0
attr interpolationmode none
attr title "packets removed, sum(packetBytes)"
scalar NetworkDaisyChain.gPtpSlave7.eth[0].mac "simulated time" 0
scalar NetworkDaisyChain.gPtpSlave7.eth[0].mac full-duplex 1
scalar NetworkDaisyChain.gPtpSlave7.eth[0].mac "rx channel idle (%)" -nan
scalar NetworkDaisyChain.gPtpSlave7.eth[0].mac "rx channel utilization (%)" -nan
scalar NetworkDaisyChain.gPtpSlave7.eth[0].mac rxPausePkUnits:count 0
attr interpolationmode none
attr title "pause units received, count"
scalar NetworkDaisyChain.gPtpSlave7.eth[0].mac rxPausePkUnits:sum 0
attr interpolationmode none
attr title "pause units received, sum"
scalar NetworkDaisyChain.gPtpSlave7.eth[0].mac txPausePkUnits:count 0
attr interpolationmode none
attr title "pause units sent, count"
scalar NetworkDaisyChain.gPtpSlave7.eth[0].mac txPausePkUnits:sum 0
attr interpolationmode none
attr title "pause units sent, sum"
scalar NetworkDaisyChain.gPtpSlave7.eth[0].mac rxPkOk:count 0
attr interpolationmode none
attr source rxPkOk
attr title "packets received OK, count"
scalar NetworkDaisyChain.gPtpSlave7.eth[0].mac rxPkOk:sum(packetBytes) 0
attr interpolationmode none
attr source rxPkOk
attr title "packets received OK, sum(packetBytes)"
scalar NetworkDaisyChain.gPtpSlave7.eth[0].mac txPk:count 0
attr interpolationmode none
attr source packetSentToLower
attr title "packets transmitted, count"
scalar NetworkDaisyChain.gPtpSlave7.eth[0].mac txPk:sum(packetBytes) 0
attr interpolationmode none
attr source packetSentToLower
attr title "packets transmitted, sum(packetBytes)"
scalar NetworkDaisyChain.gPtpSlave7.eth[0].mac packetReceivedFromUpper:count 0
attr interpolationmode none
attr source packetReceivedFromUpper
attr title "packet bytes from higher layer, count"
scalar NetworkDaisyChain.gPtpSlave7.eth[0].mac packetReceivedFromUpper:sum(packetBytes) 0
attr interpolationmode none
attr source packetReceivedFromUpper
attr title "packet bytes from higher layer, sum(packetBytes)"
scalar NetworkDaisyChain.gPtpSlave7.eth[0].mac passedUpPk:count 0
attr interpolationmode none
attr source packetSentToUpper
attr title "packets passed to higher layer, count"
scalar NetworkDaisyChain.gPtpSlave7.eth[0].mac passedUpPk:sum(packetBytes) 0
attr interpolationmode none
attr source packetSentToUpper
attr title "packets passed to higher layer, sum(packetBytes)"
scalar NetworkDaisyChain.gPtpSlave7.eth[0].mac packetDropIncorrectlyReceived:count 0
attr interpolationmode none
attr source packetDropReasonIsIncorrectlyReceived(packetDropped)
attr title "packet drop: incorrectly received, count"
scalar NetworkDaisyChain.gPtpSlave7.eth[0].mac packetDropIncorrectlyReceived:sum(packetBytes) 0
attr interpolationmode none
attr source packetDropReasonIsIncorrectlyReceived(packetDropped)
attr title "packet drop: incorrectly received, sum(packetBytes)"
scalar NetworkDaisyChain.gPtpSlave7.eth[0].mac packetDropInterfaceDown:count 0
attr interpolationmode none
attr source packetDropReasonIsInterfaceDown(packetDropped)
attr title "packet drop: interface down, count"
scalar NetworkDaisyChain.gPtpSlave7.eth[0].mac packetDropInterfaceDown:sum(packetBytes) 0
attr interpolationmode none
attr source packetDropReasonIsInterfaceDown(packetDropped)
attr title "packet drop: interface down, sum(packetBytes)"
scalar NetworkDaisyChain.gPtpSlave7.eth[0].mac packetDropNotAddressedToUs:count 0
attr interpolationmode none
attr source packetDropReasonIsNotAddressedToUs(packetDropped)
attr title "packet drop: not addressed to us, count"
scalar NetworkDaisyChain.gPtpSlave7.eth[0].mac packetDropNotAddressedToUs:sum(packetBytes) 0
attr interpolationmode none
attr source packetDropReasonIsNotAddressedToUs(packetDropped)
attr title "packet drop: not addressed to us, sum(packetBytes)"
scalar NetworkDaisyChain.gPtpSlave7.eth[0].encap pauseSent:count 0
attr title "pause sent, count"
scalar NetworkDaisyChain.gPtpSlave7.eth[0].encap pauseSent:sum 0
attr title "pause sent, sum"
scalar NetworkDaisyChain.gPtpSlave7.eth[0].encap decapPk:count 0
attr interpolationmode none
attr source decapPk
attr title "packets decapsulated, count"
scalar NetworkDaisyChain.gPtpSlave7.eth[0].encap decapPk:sum(packetBytes) 0
attr interpolationmode none
attr source decapPk
attr title "packets decapsulated, sum(packetBytes)"
scalar NetworkDaisyChain.gPtpSlave7.eth[0].encap encapPk:count 0
attr interpolationmode none
attr source encapPk
attr title "packets encapsulated, count"
scalar NetworkDaisyChain.gPtpSlave7.eth[0].encap encapPk:sum(packetBytes) 0
attr interpolationmode none
attr source encapPk
attr title "packets encapsulated, sum(packetBytes)"
scalar NetworkDaisyChain.gPtpSlave7.ipv4.ip packetDropAddressResolutionFailed:count 0
attr interpolationmode none
attr source packetDropReasonIsAddressResolutionFailed(packetDropped)
attr title "packet drop: address resolution failed, count"
scalar NetworkDaisyChain.gPtpSlave7.ipv4.ip packetDropAddressResolutionFailed:sum(packetBytes) 0
attr interpolationmode none
attr source packetDropReasonIsAddressResolutionFailed(packetDropped)
attr title "packet drop: address resolution failed, sum(packetBytes)"
scalar NetworkDaisyChain.gPtpSlave7.ipv4.ip packetDropHopLimitReached:count 0
attr interpolationmode none
attr source packetDropReasonIsHopLimitReached(packetDropped)
attr title "packet drop: hop limit reached, count"
scalar NetworkDaisyChain.gPtpSlave7.ipv4.ip packetDropHopLimitReached:sum(packetBytes) 0
attr interpolationmode none
attr source packetDropReasonIsHopLimitReached(packetDropped)
attr title "packet drop: hop limit reached, sum(packetBytes)"
scalar NetworkDaisyChain.gPtpSlave7.ipv4.ip packetDropForwardingDisabled:count 0
attr interpolationmode none
attr source packetDropReasonIsForwardingDisabled(packetDropped)
attr title "packet drop: forwarding disabled, count"
scalar NetworkDaisyChain.gPtpSlave7.ipv4.ip packetDropForwardingDisabled:sum(packetBytes) 0
attr interpolationmode none
attr source packetDropReasonIsForwardingDisabled(packetDropped)
attr title "packet drop: forwarding disabled, sum(packetBytes)"
scalar NetworkDaisyChain.gPtpSlave7.ipv4.ip packetDropNoInterfaceFound:count 0
attr interpolationmode none
attr source packetDropReasonIsNoInterfaceFound(packetDropped)
attr title "packet drop: no interface found, count"
scalar NetworkDaisyChain.gPtpSlave7.ipv4.ip packetDropNoInterfaceFound:sum(packetBytes) 0
attr interpolationmode none
attr source packetDropReasonIsNoInterfaceFound(packetDropped)
attr title "packet drop: no interface found, sum(packetBytes)"
scalar NetworkDaisyChain.gPtpSlave7.ipv4.ip packetDropNoRouteFound:count 0
attr interpolationmode none
attr source packetDropReasonIsNoRouteFound(packetDropped)
attr title "packet drop: no route found, count"
scalar NetworkDaisyChain.gPtpSlave7.ipv4.ip packetDropNoRouteFound:sum(packetBytes) 0
attr interpolationmode none
attr source packetDropReasonIsNoRouteFound(packetDropped)
attr title "packet drop: no route found, sum(packetBytes)"
scalar NetworkDaisyChain.gPtpSlave7.ipv4.ip packetDropUndefined:count 0
attr interpolationmode none
attr source packetDropReasonIsUndefined(packetDropped)
attr title "packet drop: undefined, count"
scalar NetworkDaisyChain.gPtpSlave7.ipv4.ip packetDropUndefined:sum(packetBytes) 0
attr interpolationmode none
attr source packetDropReasonIsUndefined(packetDropped)
attr title "packet drop: undefined, sum(packetBytes)"
scalar NetworkDaisyChain.gPtpSlave7.ipv4.arp arpResolutionFailed:count 0
attr title "ARP failed resolutions, count"
scalar NetworkDaisyChain.gPtpSlave7.ipv4.arp arpResolutionCompleted:count 0
attr title "ARP completed resolutions, count"
scalar NetworkDaisyChain.gPtpSlave7.ipv4.arp arpResolutionInitiated:count 0
attr title "ARP initiated resolutions, count"
scalar NetworkDaisyChain.gPtpSlave7.ipv4.arp arpReplySent:count 0
attr source arpReplySent
attr title "ARP replies sent, count"
scalar NetworkDaisyChain.gPtpSlave7.ipv4.arp arpReplySent:sum(packetBytes) 0
attr source arpReplySent
attr title "ARP replies sent, sum(packetBytes)"
scalar NetworkDaisyChain.gPtpSlave7.ipv4.arp arpRequestSent:count 0
attr source arpRequestSent
attr title "ARP request sent, count"
scalar NetworkDaisyChain.gPtpSlave7.ipv4.arp arpRequestSent:sum(packetBytes) 0
attr source arpRequestSent
attr title "ARP request sent, sum(packetBytes)"
scalar NetworkDaisyChain.gPtpSlave7.udp packetReceived:count 0
attr interpolationmode none
attr source packetReceived
attr title "packets received, count"
scalar NetworkDaisyChain.gPtpSlave7.udp packetReceived:sum(packetBytes) 0
attr interpolationmode none
attr source packetReceived
attr title "packets received, sum(packetBytes)"
scalar NetworkDaisyChain.gPtpSlave7.udp packetSent:count 0
attr interpolationmode none
attr source packetSent
attr title "packets sent, count"
scalar NetworkDaisyChain.gPtpSlave7.udp packetSent:sum(packetBytes) 0
attr interpolationmode none
attr source packetSent
attr title "packets sent, sum(packetBytes)"
scalar NetworkDaisyChain.gPtpSlave7.udp passedUpPk:count 0
attr interpolationmode none
attr source packetSentToUpper
attr title "packets passed up, count"
scalar NetworkDaisyChain.gPtpSlave7.udp droppedPkWrongPort:count 0
attr interpolationmode none
attr source packetDropReasonIsNoPortFound(packetDropped)
attr title "packets dropped (wrong port), count"
scalar NetworkDaisyChain.gPtpSlave7.udp droppedPkBadChecksum:count 0
attr interpolationmode none
attr source packetDropReasonIsIncorrectlyReceived(packetDropped)
attr title "packets dropped (checksum error), count"

